                                  MODFLOW-2015     
      U.S. GEOLOGICAL SURVEY MODULAR FINITE-DIFFERENCE GROUND-WATER FLOW MODEL
                            VERSION GWF 3 11/10/2014

 LIST FILE: test4tas.lst
                         UNIT 1004

 OPENING test4tas.ic
 FILE TYPE:IC8   UNIT 1005   STATUS:OLD    
 FORMAT:FORMATTED              ACCESS:SEQUENTIAL          

 OPENING test4tas.npf
 FILE TYPE:NPF8   UNIT 1006   STATUS:OLD    
 FORMAT:FORMATTED              ACCESS:SEQUENTIAL          
#CHD8  test4tas.chd     OLD                                                                                                                                                                                                                                                                                 

 OPENING test4tas.wel
 FILE TYPE:WEL8   UNIT 1007   STATUS:OLD    
 FORMAT:FORMATTED              ACCESS:SEQUENTIAL          

 OPENING test4tas-example.riv
 FILE TYPE:RIV8   UNIT 1008   STATUS:OLD    
 FORMAT:FORMATTED              ACCESS:SEQUENTIAL          

 OPENING test4tas.rch
 FILE TYPE:RCH8   UNIT 1009   STATUS:OLD    
 FORMAT:FORMATTED              ACCESS:SEQUENTIAL          

 OPENING test4tas.oc
 FILE TYPE:OC8   UNIT 1010   STATUS:OLD    
 FORMAT:FORMATTED              ACCESS:SEQUENTIAL          
#OC8   test4tas-brief.oc      OLD                                                                                                                                                                                                                                                                           

 OPENING test4tas.dis
 FILE TYPE:DIS8   UNIT 1011   STATUS:OLD    
 FORMAT:FORMATTED              ACCESS:SEQUENTIAL          

 OPENING test4tas.ghb
 FILE TYPE:GHB8   UNIT 1012   STATUS:OLD    
 FORMAT:FORMATTED              ACCESS:SEQUENTIAL          

 OPENING test4tas.sto
 FILE TYPE:STO8   UNIT 1013   STATUS:OLD    
 FORMAT:FORMATTED              ACCESS:SEQUENTIAL          

 OPENING test4tas.ets
 FILE TYPE:ETS8   UNIT 1014   STATUS:OLD    
 FORMAT:FORMATTED              ACCESS:SEQUENTIAL          

 OPENING test4tas.obs
 FILE TYPE:OBS8   UNIT 1015   STATUS:OLD    
 FORMAT:FORMATTED              ACCESS:SEQUENTIAL          
#                                                                                                                                                                                                                                                                                                           
# Output DATA and DATA(BINARY) files                                                                                                                                                                                                                                                                        
#                                                                                                                                                                                                                                                                                                           

 OPENING test4tas.cbc
 FILE TYPE:DATA(BINARY)   UNIT 1016   STATUS:REPLACE
 FORMAT:UNFORMATTED            ACCESS:STREAM              
#DATA(BINARY) test4tas.hds    REPLACE                                                                                                                                                                                                                                                                       

 OPENING test4tas.hds
 FILE TYPE:DATA   UNIT 1017   STATUS:REPLACE
 FORMAT:FORMATTED              ACCESS:SEQUENTIAL          

 OPENING ibound.out
 FILE TYPE:DATA   UNIT 1018   STATUS:REPLACE
 FORMAT:FORMATTED              ACCESS:SEQUENTIAL          
#                                                                                                                                                                                                                                                                                                           
# Output: single observations                                                                                                                                                                                                                                                                               

 OPENING head_obs.csv
 FILE TYPE:DATA   UNIT 1019   STATUS:REPLACE
 FORMAT:FORMATTED              ACCESS:SEQUENTIAL          

 OPENING riv_obs.csv
 FILE TYPE:DATA   UNIT 1020   STATUS:REPLACE
 FORMAT:FORMATTED              ACCESS:SEQUENTIAL          

 OPENING ghb_obs.csv
 FILE TYPE:DATA   UNIT 1021   STATUS:REPLACE
 FORMAT:FORMATTED              ACCESS:SEQUENTIAL          
#DATA(BINARY) head_obs.bsv  REPLACE                                                                                                                                                                                                                                                                         
#DATA(BINARY) riv_obs.bsv   REPLACE                                                                                                                                                                                                                                                                         
#                                                                                                                                                                                                                                                                                                           
# Output: continuous observations                                                                                                                                                                                                                                                                           

 OPENING ghb_flows.csv
 FILE TYPE:DATA   UNIT 1022   STATUS:REPLACE
 FORMAT:FORMATTED              ACCESS:SEQUENTIAL          

 OPENING head_hydrographs.csv
 FILE TYPE:DATA   UNIT 1023   STATUS:REPLACE
 FORMAT:FORMATTED              ACCESS:SEQUENTIAL          

 OPENING riv_flows.csv
 FILE TYPE:DATA   UNIT 1024   STATUS:REPLACE
 FORMAT:FORMATTED              ACCESS:SEQUENTIAL          

 OPENING intercell_flow_obs1.csv
 FILE TYPE:DATA   UNIT 1025   STATUS:REPLACE
 FORMAT:FORMATTED              ACCESS:SEQUENTIAL          

 OPENING intercell_flow_obs2.csv
 FILE TYPE:DATA   UNIT 1026   STATUS:REPLACE
 FORMAT:FORMATTED              ACCESS:SEQUENTIAL          

 OPENING intercell_flows.csv
 FILE TYPE:DATA   UNIT 1027   STATUS:REPLACE
 FORMAT:FORMATTED              ACCESS:SEQUENTIAL          

 OPENING chd_flows.csv
 FILE TYPE:DATA   UNIT 1028   STATUS:REPLACE
 FORMAT:FORMATTED              ACCESS:SEQUENTIAL          

 OPENING chd_obs.csv
 FILE TYPE:DATA   UNIT 1029   STATUS:REPLACE
 FORMAT:FORMATTED              ACCESS:SEQUENTIAL          
#DATA(BINARY) ghb_flows.bsv            REPLACE                                                                                                                                                                                                                                                              
#DATA(BINARY) head_hydrographs.bsv     REPLACE                                                                                                                                                                                                                                                              
#DATA(BINARY) riv_flows.bsv            REPLACE                                                                                                                                                                                                                                                              
#DATA(BINARY) intercell_flow_obs1.bsv  REPLACE                                                                                                                                                                                                                                                              
#DATA(BINARY) intercell_flow_obs2.bsv  REPLACE                                                                                                                                                                                                                                                              
#DATA(BINARY) intercell_flows.bsv      REPLACE                                                                                                                                                                                                                                                              

 DIS -- STRUCTURED GRID DISCRETIZATION PACKAGE, VERSION 2 : 3/27/2014 - INPUT READ FROM UNIT 1011


 PROCESSING DISCRETIZATION OPTIONS
 END OF DISCRETIZATION OPTIONS
 MODEL LENGTH UNIT IS UNDEFINED
 PROCESSING DISCRETIZATION DIMENSIONS
    NLAY =       2
    NROW =      10
    NCOL =      15
 END OF DISCRETIZATION DIMENSIONS
 PROCESSING DISDATA

                     DELR =   500.000    

                     DELC =   500.000    

 TOP ELEVATION OF LAYER 1 =   150.000    

   MODEL LAYER BOTTOM EL. =   50.0000     FOR LAYER   1

   MODEL LAYER BOTTOM EL. =  -50.0000     FOR LAYER   2
 END PROCESSING DISDATA

 IC -- INITIAL CONDITIONS PACKAGE, VERSION 8, 3/28/2015 INPUT READ FROM UNIT 1005
 #Valley aquifer with 2 sand layers separated by silt.  Stress period 1 is natur
 # conditions.  Stress period 2 adds wells.
 PROCESSING IC OPTIONS
 END OF IC OPTIONS
 PROCESSING ICDATA

             INITIAL HEAD =  100.0000     FOR LAYER   1

             INITIAL HEAD =  100.0000     FOR LAYER   2
 END PROCESSING ICDATA

 NPF -- NODE PROPERTY FLOW PACKAGE, VERSION 1, 3/30/2015 INPUT READ FROM UNIT 1006


 PROCESSING NPF OPTIONS
    CELL-BY-CELL FLOW INFORMATION WILL BE SAVED TO BINARY FILE WHENEVER ICBCFL IS NOT ZERO.
 #  VFC  (turn on vertical flow correction).  Default is off?
    VERTICAL CONDUCTANCE IS CONSTANT.
 #  CVCORRECTION (default is off)
    REWETTING IS ACTIVE.
    IWETIT HAS BEEN SET TO:     1
    WETTING FACTOR HAS BEEN SET TO:    1.000000    
    IHDWET HAS BEEN SET TO:     0
    THE VALUE FOR HDRY HAS BEEN SET TO:     777.770    
 END OF NPF OPTIONS
 #
 PROCESSING NPFDATA

                ICELLTYPE =              1 FOR LAYER   1

                ICELLTYPE =              0 FOR LAYER   2

                 ICELLAVG =         0



                             WETDRY FOR LAYER   1
 READING ON UNIT 1006 WITH FORMAT: (FREE)              

           1          2          3          4          5          6          7          8          9         10         11
          12         13         14         15
 .........................................................................................................................
   1    2.00       2.00       2.00       2.00       2.00       2.00       2.00       2.00      -2.00      -2.00      -2.00    
       -2.00      -2.00      -2.00      -2.00    
   2    2.00       2.00       2.00       2.00       2.00       2.00       2.00       2.00      -2.00      -2.00      -2.00    
       -2.00      -2.00      -2.00      -2.00    
   3    2.00       2.00       2.00      -2.00       2.00       2.00       2.00       2.00      -2.00      -2.00      -2.00    
       -2.00      -2.00      -2.00      -2.00    
   4    2.00       2.00       2.00       2.00       2.00       2.00       2.00       2.00      -2.00      -2.00      -2.00    
       -2.00      -2.00      -2.00      -2.00    
   5    2.00       2.00       2.00       2.00       2.00       2.00       2.00       2.00      -2.00      -2.00      -2.00    
       -2.00      -2.00      -2.00      -2.00    
   6    2.00       2.00       2.00       2.00       2.00       2.00       2.00       2.00      -2.00      -2.00      -2.00    
       -2.00      -2.00      -2.00      -2.00    
   7    2.00       2.00       2.00       2.00       2.00       2.00       2.00       2.00      -2.00      -2.00      -2.00    
       -2.00      -2.00      -2.00      -2.00    
   8    2.00       2.00       2.00      -2.00       2.00       2.00       2.00       2.00      -2.00      -2.00      -2.00    
       -2.00      -2.00      -2.00      -2.00    
   9    2.00       2.00       2.00       2.00       2.00       2.00       2.00       2.00      -2.00      -2.00      -2.00    
       -2.00      -2.00      -2.00      -2.00    
  10    2.00       2.00       2.00       2.00       2.00       2.00       2.00       2.00      -2.00      -2.00      -2.00    
       -2.00      -2.00      -2.00      -2.00    

                   WETDRY =   0.00000     FOR LAYER   2

                       HK =   4.00000     FOR LAYER   1

                       HK =  0.500000     FOR LAYER   2

                       VK =  1.000000E-02
 END PROCESSING NPFDATA

 STO -- STORAGE PACKAGE, VERSION 1, 5/19/2014 INPUT READ FROM UNIT 1013


 PROCESSING STORAGE OPTIONS
    CELL-BY-CELL FLOW INFORMATION WILL BE SAVED TO BINARY FILE WHENEVER ICBCFL IS NOT ZERO.
 #STORAGECOEFFICIENT uncomment if SS is entered as storage coefficient
 END OF STORAGE OPTIONS

 OUTPUT CONTROL IS SPECIFIED ONLY AT TIME STEPS FOR WHICH OUTPUT IS DESIRED
 BINARY CELL-BY-CELL BUDGET INFORMATION WILL BE WRITTEN TO FILE:
 test4tas.cbc
 OPENED ON UNIT NUMBER:   1016
 HEAD             WILL BE SAVED WITH FORMAT: (15f7.2)            
 SAVED HEAD             WILL BE LABELED
 IBOUND           WILL BE SAVED WITH FORMAT: (15i2)              
 SAVED IBOUND           WILL BE LABELED
 HEAD PRINT FORMAT CODE IS   4
 DRAWDOWN PRINT FORMAT CODE IS   0
 IBOUND PRINT FORMAT CODE IS   0
 HEAD WILL BE SAVED ON UNIT 1017
 IBOUND WILL BE SAVED ON UNIT 1018

The Observation Process is active

Processing observation options:

Binary output precision set to: SINGLE
Text output number of digits of precision set to: 10
"Structured" option found. Cell locations for observations will be
read as: Layer Row Column.


 WEL   -- WELLS PACKAGE, VERSION 8, 2/22/2014 INPUT READ FROM UNIT 1007
 #option block.  Note -- no comments allowed on aux line

 PROCESSING WELLS OPTIONS
    AUXILIARY WELLS VARIABLE: VAR1            
    AUXILIARY WELLS VARIABLE: VAR2            
    AUXILIARY WELLS VARIABLE: VAR3            
    WELLS NEAR RIVER PACKAGE NAME: WELLS NEAR RIVER
    LISTS OF WELLS NEAR RIVER CELLS WILL BE PRINTED.
    WELLS NEAR RIVER FLOWS WILL BE PRINTED TO LISTING FILE.
    FLOWS WILL BE SAVED TO BUDGET FILE SPECIFIED IN OUTPUT CONTROL
    WELLS NEAR RIVER BOUNDARIES HAVE NAMES IN LAST COLUMN.
    TIME-SERIES DATA WILL BE READ FROM FILE: well-1_rate.ts
    TIME-SERIES DATA WILL BE READ FROM FILE: well-2_rate.ts
 END OF WELLS NEAR RIVER OPTIONS

 PROCESSING WELLS NEAR RIVER DIMENSIONS
    MAXBOUND =       5
 END OF WELLS NEAR RIVER DIMENSIONS

 RIV   -- RIVER LEAKAGE PACKAGE, VERSION 8, 2/22/2014 INPUT READ FROM UNIT 1008
 #option block.  Note -- no comments allowed on aux line

 PROCESSING RIVER LEAKAGE OPTIONS
    RIVER PACKAGE NAME: RIVER           
    LISTS OF RIVER CELLS WILL BE PRINTED.
    RIVER FLOWS WILL BE PRINTED TO LISTING FILE.
    FLOWS WILL BE SAVED TO BUDGET FILE SPECIFIED IN OUTPUT CONTROL
    RIVER BOUNDARIES HAVE NAMES IN LAST COLUMN.
    TIME-SERIES DATA WILL BE READ FROM FILE: time_series_file_1.ts
    TIME-SERIES DATA WILL BE READ FROM FILE: time_series_file_2.ts
 #Other packages may specify the same TIMESERIESFILE and reuse the same time series.
 #To specify multiple time-series files, enter a TIMESERIESFILE line for each file.
 END OF RIVER OPTIONS

 PROCESSING RIVER DIMENSIONS
    MAXBOUND =      10
 END OF RIVER DIMENSIONS

 GHB   -- HEAD DEP BOUNDS PACKAGE, VERSION 8, 2/22/2014 INPUT READ FROM UNIT 1012
 # Options block

 PROCESSING HEAD DEP BOUNDS OPTIONS
    GHB LAKES PACKAGE NAME: GHB LAKES       
    LISTS OF GHB LAKES CELLS WILL BE PRINTED.
    GHB LAKES FLOWS WILL BE PRINTED TO LISTING FILE.
    GHB LAKES BOUNDARIES HAVE NAMES IN LAST COLUMN.
 END OF GHB LAKES OPTIONS
 # Dimensions block

 PROCESSING GHB LAKES DIMENSIONS
    MAXBOUND =       3
 END OF GHB LAKES DIMENSIONS

 RCH   -- RECHARGE PACKAGE, VERSION 8, 2/22/2014 INPUT READ FROM UNIT 1009

 PROCESSING RECHARGE OPTIONS
    RECHARGE WILL BE APPLIED TO HIGHEST ACTIVE CELL.
    LISTS OF RECHARGE CELLS WILL BE PRINTED.
    RECHARGE FLOWS WILL BE PRINTED TO LISTING FILE.
    FLOWS WILL BE SAVED TO BUDGET FILE SPECIFIED IN OUTPUT CONTROL
    RECHARGE PACKAGE NAME: RECHARGE        
    TIME-ARRAY SERIES DATA WILL BE READ FROM FILE: RchArraySeries.tas

 RchArraySeries           =  2.000000E-03 FOR LAYER   1
    AUXILIARY RECHARGE VARIABLE: VAR1            
 END OF RECHARGE OPTIONS
 # Dimension block is required

 PROCESSING RECHARGE DIMENSIONS
    MAXBOUND =     150
 END OF RECHARGE DIMENSIONS

 ETS   -- ETS PACKAGE, VERSION 8, 2/22/2014 INPUT READ FROM UNIT 1014
 # ETS input file

 PROCESSING ETS OPTIONS
    EVAPOTRANSPIRATION WILL BE APPLIED TO HIGHEST ACTIVE CELL.
    LISTS OF ETS CELLS WILL BE PRINTED.
    ETS FLOWS WILL BE PRINTED TO LISTING FILE.
    FLOWS WILL BE SAVED TO BUDGET FILE SPECIFIED IN OUTPUT CONTROL
    ET SEGS PACKAGE NAME: ET SEGS         
 #  TimeArraySeriesFile EtsArraySeries.tas
 END OF ET SEGS OPTIONS

 PROCESSING ET SEGS DIMENSIONS
    MAXBOUND =     150
 END OF ET SEGS DIMENSIONS
 #

 REUSING STORAGE VALUES FROM LAST STRESS PERIOD

 REUSING WELS FROM LAST STRESS PERIOD
 #    layer       row       col    stage           cond       rbot  BoundName

 RIV NO.  LAYER   ROW    COL       STAGE         CONDUCTANCE  BOTTOM EL.      BOUNDARY NAME         
 ---------------------------------------------------------------------------------------------------
      1      1      1     15       101.0           1001.           101.0                      
      2      1      2     15       101.0           1002.           102.0      RIV2            
      3      1      3     15       111.2           1003.           103.0      RIV3            
      4      1      4     15       111.2           1004.           104.0                      
      5      1      5     15       115.3           1005.           105.0                      
      6      1      6     15       115.3           1006.           106.0                      
      7      1      7     15       104.0           1007.           107.0      RIVX            
      8      1      8     15       104.0           1008.           108.0      RIVX            
      9      1      9     15       113.0           1009.           109.0      RIVX            
     10      1     10     15       113.0           1010.           110.0                      
 # Stress-period block(s)

 GHB NO.  LAYER   ROW    COL       STAGE         CONDUCTANCE  BOUNDARY NAME         
 -----------------------------------------------------------------------------------
      1      1      3      1      100.00           1500.                      
      2      1      7      1       110.0           1400.      GHB2_UPPER      
      3      1      7      1       85.00           500.0      GHB2_LOWER      
 # Time-array series applies stress periods 1-7

      LAYER OR NODE INDEX =              1

 VAR1                     =  100.0000    

      LAYER OR NODE INDEX =              1

               ET SURFACE =   140.000    

  EVAPOTRANSPIRATION RATE =  4.000000E-04

         EXTINCTION DEPTH =  10.00000    

 EXTINCT. DEP. PROPORTION =  0.200000    

       ET RATE PROPORTION =  0.300000    

 EXTINCT. DEP. PROPORTION =  0.500000    

       ET RATE PROPORTION =  1.000000E-01
RIV   no.    1 value from time series:   101.00     for time:  0.000     to 1.0000    
RIV   no.    2 value from time series:   101.00     for time:  0.000     to 1.0000    
RIV   no.    3 value from time series:   111.25     for time:  0.000     to 1.0000    
RIV   no.    4 value from time series:   111.25     for time:  0.000     to 1.0000    
RIV   no.    5 value from time series:   115.35     for time:  0.000     to 1.0000    
RIV   no.    6 value from time series:   115.35     for time:  0.000     to 1.0000    
RIV   no.    7 value from time series:   104.05     for time:  0.000     to 1.0000    
RIV   no.    8 value from time series:   104.05     for time:  0.000     to 1.0000    
RIV   no.    9 value from time series:   113.00     for time:  0.000     to 1.0000    
RIV   no.   10 value from time series:   113.00     for time:  0.000     to 1.0000    

 RchArraySeries           =  2.500000E-03 FOR LAYER   1
RIV   no.    1 value from time series:   101.00     for time:  0.000     to 1.0000    
RIV   no.    2 value from time series:   101.00     for time:  0.000     to 1.0000    
RIV   no.    3 value from time series:   111.25     for time:  0.000     to 1.0000    
RIV   no.    4 value from time series:   111.25     for time:  0.000     to 1.0000    
RIV   no.    5 value from time series:   115.35     for time:  0.000     to 1.0000    
RIV   no.    6 value from time series:   115.35     for time:  0.000     to 1.0000    
RIV   no.    7 value from time series:   104.05     for time:  0.000     to 1.0000    
RIV   no.    8 value from time series:   104.05     for time:  0.000     to 1.0000    
RIV   no.    9 value from time series:   113.00     for time:  0.000     to 1.0000    
RIV   no.   10 value from time series:   113.00     for time:  0.000     to 1.0000    

 OUTPUT CONTROL FOR STRESS PERIOD    1   TIME STEP    1
    PRINT BUDGET
    PRINT HEAD
    PRINT HEAD FOR ALL LAYERS
    SAVE BUDGET
    SAVE HEAD
    SAVE HEAD FOR ALL LAYERS
 UBDSV1 SAVING          STORAGE ON UNIT   1016 AT TIME STEP      1, STRESS PERIOD      1
 UBDSV1 SAVING FLOW RIGHT FACE  ON UNIT   1016 AT TIME STEP      1, STRESS PERIOD      1
 UBDSV1 SAVING FLOW FRONT FACE  ON UNIT   1016 AT TIME STEP      1, STRESS PERIOD      1
 UBDSV1 SAVING FLOW LOWER FACE  ON UNIT   1016 AT TIME STEP      1, STRESS PERIOD      1
 UBDSV4 SAVING WELLS NEAR RIVER ON UNIT   1016 AT TIME STEP      1, STRESS PERIOD      1
 UBDSV4 SAVING RIVER            ON UNIT   1016 AT TIME STEP      1, STRESS PERIOD      1

 RIVER              PERIOD  1   STEP  1
 BOUNDARY      1   LAYER   1   ROW     1   COL    15   RATE    -4657.61    
 BOUNDARY      2   LAYER   1   ROW     2   COL    15   RATE    -5758.62      RIV2
 BOUNDARY      3   LAYER   1   ROW     3   COL    15   RATE    -2138.98      RIV3
 BOUNDARY      4   LAYER   1   ROW     4   COL    15   RATE    -3629.01    
 BOUNDARY      5   LAYER   1   ROW     5   COL    15   RATE    -2063.27    
 BOUNDARY      6   LAYER   1   ROW     6   COL    15   RATE    -1438.81    
 BOUNDARY      7   LAYER   1   ROW     7   COL    15   RATE    -5994.58      RIVX
 BOUNDARY      8   LAYER   1   ROW     8   COL    15   RATE    -5765.43      RIVX
 BOUNDARY      9   LAYER   1   ROW     9   COL    15   RATE    -2194.36      RIVX
 BOUNDARY     10   LAYER   1   ROW    10   COL    15   RATE    -3046.62    

 GHB LAKES          PERIOD  1   STEP  1
 BOUNDARY      1   LAYER   1   ROW     3   COL     1   RATE    -14402.9    
 BOUNDARY      2   LAYER   1   ROW     7   COL     1   RATE    -1829.65      GHB2_UPPER
 BOUNDARY      3   LAYER   1   ROW     7   COL     1   RATE    -13153.4      GHB2_LOWER
 UBDSV4 SAVING RECHARGE         ON UNIT   1016 AT TIME STEP      1, STRESS PERIOD      1

 RECHARGE           PERIOD  1   STEP  1
 BOUNDARY      1   LAYER   1   ROW     1   COL     1   RATE     501.042    
 BOUNDARY      2   LAYER   1   ROW     1   COL     2   RATE     501.042    
 BOUNDARY      3   LAYER   1   ROW     1   COL     3   RATE     501.042    
 BOUNDARY      4   LAYER   1   ROW     1   COL     4   RATE     501.042    
 BOUNDARY      5   LAYER   1   ROW     1   COL     5   RATE     501.042    
 BOUNDARY      6   LAYER   1   ROW     1   COL     6   RATE     501.042    
 BOUNDARY      7   LAYER   1   ROW     1   COL     7   RATE     501.042    
 BOUNDARY      8   LAYER   1   ROW     1   COL     8   RATE     501.042    
 BOUNDARY      9   LAYER   1   ROW     1   COL     9   RATE     501.042    
 BOUNDARY     10   LAYER   1   ROW     1   COL    10   RATE     501.042    
 BOUNDARY     11   LAYER   1   ROW     1   COL    11   RATE     501.042    
 BOUNDARY     12   LAYER   1   ROW     1   COL    12   RATE     501.042    
 BOUNDARY     13   LAYER   1   ROW     1   COL    13   RATE     501.042    
 BOUNDARY     14   LAYER   1   ROW     1   COL    14   RATE     501.042    
 BOUNDARY     15   LAYER   1   ROW     1   COL    15   RATE     501.042    
 BOUNDARY     16   LAYER   1   ROW     2   COL     1   RATE     501.042    
 BOUNDARY     17   LAYER   1   ROW     2   COL     2   RATE     501.042    
 BOUNDARY     18   LAYER   1   ROW     2   COL     3   RATE     501.042    
 BOUNDARY     19   LAYER   1   ROW     2   COL     4   RATE     501.042    
 BOUNDARY     20   LAYER   1   ROW     2   COL     5   RATE     501.042    
 BOUNDARY     21   LAYER   1   ROW     2   COL     6   RATE     501.042    
 BOUNDARY     22   LAYER   1   ROW     2   COL     7   RATE     501.042    
 BOUNDARY     23   LAYER   1   ROW     2   COL     8   RATE     501.042    
 BOUNDARY     24   LAYER   1   ROW     2   COL     9   RATE     501.042    
 BOUNDARY     25   LAYER   1   ROW     2   COL    10   RATE     501.042    
 BOUNDARY     26   LAYER   1   ROW     2   COL    11   RATE     501.042    
 BOUNDARY     27   LAYER   1   ROW     2   COL    12   RATE     501.042    
 BOUNDARY     28   LAYER   1   ROW     2   COL    13   RATE     501.042    
 BOUNDARY     29   LAYER   1   ROW     2   COL    14   RATE     501.042    
 BOUNDARY     30   LAYER   1   ROW     2   COL    15   RATE     501.042    
 BOUNDARY     31   LAYER   1   ROW     3   COL     1   RATE     501.042    
 BOUNDARY     32   LAYER   1   ROW     3   COL     2   RATE     501.042    
 BOUNDARY     33   LAYER   1   ROW     3   COL     3   RATE     501.042    
 BOUNDARY     34   LAYER   1   ROW     3   COL     4   RATE     501.042    
 BOUNDARY     35   LAYER   1   ROW     3   COL     5   RATE     501.042    
 BOUNDARY     36   LAYER   1   ROW     3   COL     6   RATE     501.042    
 BOUNDARY     37   LAYER   1   ROW     3   COL     7   RATE     501.042    
 BOUNDARY     38   LAYER   1   ROW     3   COL     8   RATE     501.042    
 BOUNDARY     39   LAYER   1   ROW     3   COL     9   RATE     501.042    
 BOUNDARY     40   LAYER   1   ROW     3   COL    10   RATE     501.042    
 BOUNDARY     41   LAYER   1   ROW     3   COL    11   RATE     501.042    
 BOUNDARY     42   LAYER   1   ROW     3   COL    12   RATE     501.042    
 BOUNDARY     43   LAYER   1   ROW     3   COL    13   RATE     501.042    
 BOUNDARY     44   LAYER   1   ROW     3   COL    14   RATE     501.042    
 BOUNDARY     45   LAYER   1   ROW     3   COL    15   RATE     501.042    
 BOUNDARY     46   LAYER   1   ROW     4   COL     1   RATE     501.042    
 BOUNDARY     47   LAYER   1   ROW     4   COL     2   RATE     501.042    
 BOUNDARY     48   LAYER   1   ROW     4   COL     3   RATE     501.042    
 BOUNDARY     49   LAYER   1   ROW     4   COL     4   RATE     501.042    
 BOUNDARY     50   LAYER   1   ROW     4   COL     5   RATE     501.042    
 BOUNDARY     51   LAYER   1   ROW     4   COL     6   RATE     501.042    
 BOUNDARY     52   LAYER   1   ROW     4   COL     7   RATE     501.042    
 BOUNDARY     53   LAYER   1   ROW     4   COL     8   RATE     501.042    
 BOUNDARY     54   LAYER   1   ROW     4   COL     9   RATE     501.042    
 BOUNDARY     55   LAYER   1   ROW     4   COL    10   RATE     501.042    
 BOUNDARY     56   LAYER   1   ROW     4   COL    11   RATE     501.042    
 BOUNDARY     57   LAYER   1   ROW     4   COL    12   RATE     501.042    
 BOUNDARY     58   LAYER   1   ROW     4   COL    13   RATE     501.042    
 BOUNDARY     59   LAYER   1   ROW     4   COL    14   RATE     501.042    
 BOUNDARY     60   LAYER   1   ROW     4   COL    15   RATE     501.042    
 BOUNDARY     61   LAYER   1   ROW     5   COL     1   RATE     501.042    
 BOUNDARY     62   LAYER   1   ROW     5   COL     2   RATE     501.042    
 BOUNDARY     63   LAYER   1   ROW     5   COL     3   RATE     501.042    
 BOUNDARY     64   LAYER   1   ROW     5   COL     4   RATE     501.042    
 BOUNDARY     65   LAYER   1   ROW     5   COL     5   RATE     501.042    
 BOUNDARY     66   LAYER   1   ROW     5   COL     6   RATE     501.042    
 BOUNDARY     67   LAYER   1   ROW     5   COL     7   RATE     501.042    
 BOUNDARY     68   LAYER   1   ROW     5   COL     8   RATE     501.042    
 BOUNDARY     69   LAYER   1   ROW     5   COL     9   RATE     501.042    
 BOUNDARY     70   LAYER   1   ROW     5   COL    10   RATE     501.042    
 BOUNDARY     71   LAYER   1   ROW     5   COL    11   RATE     501.042    
 BOUNDARY     72   LAYER   1   ROW     5   COL    12   RATE     501.042    
 BOUNDARY     73   LAYER   1   ROW     5   COL    13   RATE     501.042    
 BOUNDARY     74   LAYER   1   ROW     5   COL    14   RATE     501.042    
 BOUNDARY     75   LAYER   1   ROW     5   COL    15   RATE     501.042    
 BOUNDARY     76   LAYER   1   ROW     6   COL     1   RATE     501.042    
 BOUNDARY     77   LAYER   1   ROW     6   COL     2   RATE     501.042    
 BOUNDARY     78   LAYER   1   ROW     6   COL     3   RATE     501.042    
 BOUNDARY     79   LAYER   1   ROW     6   COL     4   RATE     501.042    
 BOUNDARY     80   LAYER   1   ROW     6   COL     5   RATE     501.042    
 BOUNDARY     81   LAYER   1   ROW     6   COL     6   RATE     501.042    
 BOUNDARY     82   LAYER   1   ROW     6   COL     7   RATE     501.042    
 BOUNDARY     83   LAYER   1   ROW     6   COL     8   RATE     501.042    
 BOUNDARY     84   LAYER   1   ROW     6   COL     9   RATE     501.042    
 BOUNDARY     85   LAYER   1   ROW     6   COL    10   RATE     501.042    
 BOUNDARY     86   LAYER   1   ROW     6   COL    11   RATE     501.042    
 BOUNDARY     87   LAYER   1   ROW     6   COL    12   RATE     501.042    
 BOUNDARY     88   LAYER   1   ROW     6   COL    13   RATE     501.042    
 BOUNDARY     89   LAYER   1   ROW     6   COL    14   RATE     501.042    
 BOUNDARY     90   LAYER   1   ROW     6   COL    15   RATE     501.042    
 BOUNDARY     91   LAYER   1   ROW     7   COL     1   RATE     501.042    
 BOUNDARY     92   LAYER   1   ROW     7   COL     2   RATE     501.042    
 BOUNDARY     93   LAYER   1   ROW     7   COL     3   RATE     501.042    
 BOUNDARY     94   LAYER   1   ROW     7   COL     4   RATE     501.042    
 BOUNDARY     95   LAYER   1   ROW     7   COL     5   RATE     501.042    
 BOUNDARY     96   LAYER   1   ROW     7   COL     6   RATE     501.042    
 BOUNDARY     97   LAYER   1   ROW     7   COL     7   RATE     501.042    
 BOUNDARY     98   LAYER   1   ROW     7   COL     8   RATE     501.042    
 BOUNDARY     99   LAYER   1   ROW     7   COL     9   RATE     501.042    
 BOUNDARY    100   LAYER   1   ROW     7   COL    10   RATE     501.042    
 BOUNDARY    101   LAYER   1   ROW     7   COL    11   RATE     501.042    
 BOUNDARY    102   LAYER   1   ROW     7   COL    12   RATE     501.042    
 BOUNDARY    103   LAYER   1   ROW     7   COL    13   RATE     501.042    
 BOUNDARY    104   LAYER   1   ROW     7   COL    14   RATE     501.042    
 BOUNDARY    105   LAYER   1   ROW     7   COL    15   RATE     501.042    
 BOUNDARY    106   LAYER   1   ROW     8   COL     1   RATE     501.042    
 BOUNDARY    107   LAYER   1   ROW     8   COL     2   RATE     501.042    
 BOUNDARY    108   LAYER   1   ROW     8   COL     3   RATE     501.042    
 BOUNDARY    109   LAYER   1   ROW     8   COL     4   RATE     501.042    
 BOUNDARY    110   LAYER   1   ROW     8   COL     5   RATE     501.042    
 BOUNDARY    111   LAYER   1   ROW     8   COL     6   RATE     501.042    
 BOUNDARY    112   LAYER   1   ROW     8   COL     7   RATE     501.042    
 BOUNDARY    113   LAYER   1   ROW     8   COL     8   RATE     501.042    
 BOUNDARY    114   LAYER   1   ROW     8   COL     9   RATE     501.042    
 BOUNDARY    115   LAYER   1   ROW     8   COL    10   RATE     501.042    
 BOUNDARY    116   LAYER   1   ROW     8   COL    11   RATE     501.042    
 BOUNDARY    117   LAYER   1   ROW     8   COL    12   RATE     501.042    
 BOUNDARY    118   LAYER   1   ROW     8   COL    13   RATE     501.042    
 BOUNDARY    119   LAYER   1   ROW     8   COL    14   RATE     501.042    
 BOUNDARY    120   LAYER   1   ROW     8   COL    15   RATE     501.042    
 BOUNDARY    121   LAYER   1   ROW     9   COL     1   RATE     501.042    
 BOUNDARY    122   LAYER   1   ROW     9   COL     2   RATE     501.042    
 BOUNDARY    123   LAYER   1   ROW     9   COL     3   RATE     501.042    
 BOUNDARY    124   LAYER   1   ROW     9   COL     4   RATE     501.042    
 BOUNDARY    125   LAYER   1   ROW     9   COL     5   RATE     501.042    
 BOUNDARY    126   LAYER   1   ROW     9   COL     6   RATE     501.042    
 BOUNDARY    127   LAYER   1   ROW     9   COL     7   RATE     501.042    
 BOUNDARY    128   LAYER   1   ROW     9   COL     8   RATE     501.042    
 BOUNDARY    129   LAYER   1   ROW     9   COL     9   RATE     501.042    
 BOUNDARY    130   LAYER   1   ROW     9   COL    10   RATE     501.042    
 BOUNDARY    131   LAYER   1   ROW     9   COL    11   RATE     501.042    
 BOUNDARY    132   LAYER   1   ROW     9   COL    12   RATE     501.042    
 BOUNDARY    133   LAYER   1   ROW     9   COL    13   RATE     501.042    
 BOUNDARY    134   LAYER   1   ROW     9   COL    14   RATE     501.042    
 BOUNDARY    135   LAYER   1   ROW     9   COL    15   RATE     501.042    
 BOUNDARY    136   LAYER   1   ROW    10   COL     1   RATE     501.042    
 BOUNDARY    137   LAYER   1   ROW    10   COL     2   RATE     501.042    
 BOUNDARY    138   LAYER   1   ROW    10   COL     3   RATE     501.042    
 BOUNDARY    139   LAYER   1   ROW    10   COL     4   RATE     501.042    
 BOUNDARY    140   LAYER   1   ROW    10   COL     5   RATE     501.042    
 BOUNDARY    141   LAYER   1   ROW    10   COL     6   RATE     501.042    
 BOUNDARY    142   LAYER   1   ROW    10   COL     7   RATE     501.042    
 BOUNDARY    143   LAYER   1   ROW    10   COL     8   RATE     501.042    
 BOUNDARY    144   LAYER   1   ROW    10   COL     9   RATE     501.042    
 BOUNDARY    145   LAYER   1   ROW    10   COL    10   RATE     501.042    
 BOUNDARY    146   LAYER   1   ROW    10   COL    11   RATE     501.042    
 BOUNDARY    147   LAYER   1   ROW    10   COL    12   RATE     501.042    
 BOUNDARY    148   LAYER   1   ROW    10   COL    13   RATE     501.042    
 BOUNDARY    149   LAYER   1   ROW    10   COL    14   RATE     501.042    
 BOUNDARY    150   LAYER   1   ROW    10   COL    15   RATE     501.042    
 UBDSV4 SAVING ET SEGS          ON UNIT   1016 AT TIME STEP      1, STRESS PERIOD      1

 ET SEGS            PERIOD  1   STEP  1
 BOUNDARY      1   LAYER   1   ROW     1   COL     1   RATE    -2.06479    
 BOUNDARY      2   LAYER   1   ROW     1   COL     2   RATE    -8.91741    
 BOUNDARY      3   LAYER   1   ROW     1   COL     3   RATE    -47.6417    
 BOUNDARY      4   LAYER   1   ROW     1   COL     4   RATE   -100.0000    
 BOUNDARY      5   LAYER   1   ROW     1   COL     5   RATE   -100.0000    
 BOUNDARY      6   LAYER   1   ROW     1   COL     6   RATE   -100.0000    
 BOUNDARY      7   LAYER   1   ROW     1   COL     7   RATE   -100.0000    
 BOUNDARY      8   LAYER   1   ROW     1   COL     8   RATE   -100.0000    
 BOUNDARY      9   LAYER   1   ROW     1   COL     9   RATE   -100.0000    
 BOUNDARY     10   LAYER   1   ROW     1   COL    10   RATE   -100.0000    
 BOUNDARY     11   LAYER   1   ROW     1   COL    11   RATE   -100.0000    
 BOUNDARY     12   LAYER   1   ROW     1   COL    12   RATE    -16.4954    
 BOUNDARY     13   LAYER   1   ROW     1   COL    13   RATE     0.00000    
 BOUNDARY     14   LAYER   1   ROW     1   COL    14   RATE     0.00000    
 BOUNDARY     15   LAYER   1   ROW     1   COL    15   RATE     0.00000    
 BOUNDARY     16   LAYER   1   ROW     2   COL     1   RATE     0.00000    
 BOUNDARY     17   LAYER   1   ROW     2   COL     2   RATE    -4.40226    
 BOUNDARY     18   LAYER   1   ROW     2   COL     3   RATE    -27.9891    
 BOUNDARY     19   LAYER   1   ROW     2   COL     4   RATE   -100.0000    
 BOUNDARY     20   LAYER   1   ROW     2   COL     5   RATE   -100.0000    
 BOUNDARY     21   LAYER   1   ROW     2   COL     6   RATE   -100.0000    
 BOUNDARY     22   LAYER   1   ROW     2   COL     7   RATE   -100.0000    
 BOUNDARY     23   LAYER   1   ROW     2   COL     8   RATE   -100.0000    
 BOUNDARY     24   LAYER   1   ROW     2   COL     9   RATE   -100.0000    
 BOUNDARY     25   LAYER   1   ROW     2   COL    10   RATE   -100.0000    
 BOUNDARY     26   LAYER   1   ROW     2   COL    11   RATE   -100.0000    
 BOUNDARY     27   LAYER   1   ROW     2   COL    12   RATE    -18.2351    
 BOUNDARY     28   LAYER   1   ROW     2   COL    13   RATE     0.00000    
 BOUNDARY     29   LAYER   1   ROW     2   COL    14   RATE     0.00000    
 BOUNDARY     30   LAYER   1   ROW     2   COL    15   RATE     0.00000    
 BOUNDARY     31   LAYER   1   ROW     3   COL     1   RATE     0.00000    
 BOUNDARY     32   LAYER   1   ROW     3   COL     2   RATE     0.00000    
 BOUNDARY     33   LAYER   1   ROW     3   COL     3   RATE    -22.0003    
 BOUNDARY     34   LAYER   1   ROW     3   COL     4   RATE   -100.0000    
 BOUNDARY     35   LAYER   1   ROW     3   COL     5   RATE   -100.0000    
 BOUNDARY     36   LAYER   1   ROW     3   COL     6   RATE   -100.0000    
 BOUNDARY     37   LAYER   1   ROW     3   COL     7   RATE   -100.0000    
 BOUNDARY     38   LAYER   1   ROW     3   COL     8   RATE   -100.0000    
 BOUNDARY     39   LAYER   1   ROW     3   COL     9   RATE   -100.0000    
 BOUNDARY     40   LAYER   1   ROW     3   COL    10   RATE   -100.0000    
 BOUNDARY     41   LAYER   1   ROW     3   COL    11   RATE   -100.0000    
 BOUNDARY     42   LAYER   1   ROW     3   COL    12   RATE    -21.1694    
 BOUNDARY     43   LAYER   1   ROW     3   COL    13   RATE    -1.78391    
 BOUNDARY     44   LAYER   1   ROW     3   COL    14   RATE     0.00000    
 BOUNDARY     45   LAYER   1   ROW     3   COL    15   RATE     0.00000    
 BOUNDARY     46   LAYER   1   ROW     4   COL     1   RATE     0.00000    
 BOUNDARY     47   LAYER   1   ROW     4   COL     2   RATE    -2.88834    
 BOUNDARY     48   LAYER   1   ROW     4   COL     3   RATE    -25.8653    
 BOUNDARY     49   LAYER   1   ROW     4   COL     4   RATE   -100.0000    
 BOUNDARY     50   LAYER   1   ROW     4   COL     5   RATE   -100.0000    
 BOUNDARY     51   LAYER   1   ROW     4   COL     6   RATE   -100.0000    
 BOUNDARY     52   LAYER   1   ROW     4   COL     7   RATE   -100.0000    
 BOUNDARY     53   LAYER   1   ROW     4   COL     8   RATE   -100.0000    
 BOUNDARY     54   LAYER   1   ROW     4   COL     9   RATE   -100.0000    
 BOUNDARY     55   LAYER   1   ROW     4   COL    10   RATE   -100.0000    
 BOUNDARY     56   LAYER   1   ROW     4   COL    11   RATE   -100.0000    
 BOUNDARY     57   LAYER   1   ROW     4   COL    12   RATE    -23.9706    
 BOUNDARY     58   LAYER   1   ROW     4   COL    13   RATE    -3.25024    
 BOUNDARY     59   LAYER   1   ROW     4   COL    14   RATE     0.00000    
 BOUNDARY     60   LAYER   1   ROW     4   COL    15   RATE     0.00000    
 BOUNDARY     61   LAYER   1   ROW     5   COL     1   RATE     0.00000    
 BOUNDARY     62   LAYER   1   ROW     5   COL     2   RATE    -5.86160    
 BOUNDARY     63   LAYER   1   ROW     5   COL     3   RATE    -29.8528    
 BOUNDARY     64   LAYER   1   ROW     5   COL     4   RATE   -100.0000    
 BOUNDARY     65   LAYER   1   ROW     5   COL     5   RATE   -100.0000    
 BOUNDARY     66   LAYER   1   ROW     5   COL     6   RATE   -100.0000    
 BOUNDARY     67   LAYER   1   ROW     5   COL     7   RATE   -100.0000    
 BOUNDARY     68   LAYER   1   ROW     5   COL     8   RATE   -100.0000    
 BOUNDARY     69   LAYER   1   ROW     5   COL     9   RATE   -100.0000    
 BOUNDARY     70   LAYER   1   ROW     5   COL    10   RATE   -100.0000    
 BOUNDARY     71   LAYER   1   ROW     5   COL    11   RATE   -100.0000    
 BOUNDARY     72   LAYER   1   ROW     5   COL    12   RATE    -25.9130    
 BOUNDARY     73   LAYER   1   ROW     5   COL    13   RATE    -4.17066    
 BOUNDARY     74   LAYER   1   ROW     5   COL    14   RATE     0.00000    
 BOUNDARY     75   LAYER   1   ROW     5   COL    15   RATE     0.00000    
 BOUNDARY     76   LAYER   1   ROW     6   COL     1   RATE     0.00000    
 BOUNDARY     77   LAYER   1   ROW     6   COL     2   RATE    -4.43364    
 BOUNDARY     78   LAYER   1   ROW     6   COL     3   RATE    -33.0982    
 BOUNDARY     79   LAYER   1   ROW     6   COL     4   RATE   -100.0000    
 BOUNDARY     80   LAYER   1   ROW     6   COL     5   RATE   -100.0000    
 BOUNDARY     81   LAYER   1   ROW     6   COL     6   RATE   -100.0000    
 BOUNDARY     82   LAYER   1   ROW     6   COL     7   RATE   -100.0000    
 BOUNDARY     83   LAYER   1   ROW     6   COL     8   RATE   -100.0000    
 BOUNDARY     84   LAYER   1   ROW     6   COL     9   RATE   -100.0000    
 BOUNDARY     85   LAYER   1   ROW     6   COL    10   RATE   -100.0000    
 BOUNDARY     86   LAYER   1   ROW     6   COL    11   RATE   -100.0000    
 BOUNDARY     87   LAYER   1   ROW     6   COL    12   RATE    -26.5623    
 BOUNDARY     88   LAYER   1   ROW     6   COL    13   RATE    -4.13053    
 BOUNDARY     89   LAYER   1   ROW     6   COL    14   RATE     0.00000    
 BOUNDARY     90   LAYER   1   ROW     6   COL    15   RATE     0.00000    
 BOUNDARY     91   LAYER   1   ROW     7   COL     1   RATE     0.00000    
 BOUNDARY     92   LAYER   1   ROW     7   COL     2   RATE   -0.942161    
 BOUNDARY     93   LAYER   1   ROW     7   COL     3   RATE    -39.9852    
 BOUNDARY     94   LAYER   1   ROW     7   COL     4   RATE   -100.0000    
 BOUNDARY     95   LAYER   1   ROW     7   COL     5   RATE   -100.0000    
 BOUNDARY     96   LAYER   1   ROW     7   COL     6   RATE   -100.0000    
 BOUNDARY     97   LAYER   1   ROW     7   COL     7   RATE   -100.0000    
 BOUNDARY     98   LAYER   1   ROW     7   COL     8   RATE   -100.0000    
 BOUNDARY     99   LAYER   1   ROW     7   COL     9   RATE   -100.0000    
 BOUNDARY    100   LAYER   1   ROW     7   COL    10   RATE   -100.0000    
 BOUNDARY    101   LAYER   1   ROW     7   COL    11   RATE   -100.0000    
 BOUNDARY    102   LAYER   1   ROW     7   COL    12   RATE    -26.3967    
 BOUNDARY    103   LAYER   1   ROW     7   COL    13   RATE    -3.39156    
 BOUNDARY    104   LAYER   1   ROW     7   COL    14   RATE     0.00000    
 BOUNDARY    105   LAYER   1   ROW     7   COL    15   RATE     0.00000    
 BOUNDARY    106   LAYER   1   ROW     8   COL     1   RATE     0.00000    
 BOUNDARY    107   LAYER   1   ROW     8   COL     2   RATE    -10.9914    
 BOUNDARY    108   LAYER   1   ROW     8   COL     3   RATE   -100.0000    
 BOUNDARY    109   LAYER   1   ROW     8   COL     4   RATE   -100.0000    
 BOUNDARY    110   LAYER   1   ROW     8   COL     5   RATE   -100.0000    
 BOUNDARY    111   LAYER   1   ROW     8   COL     6   RATE   -100.0000    
 BOUNDARY    112   LAYER   1   ROW     8   COL     7   RATE   -100.0000    
 BOUNDARY    113   LAYER   1   ROW     8   COL     8   RATE   -100.0000    
 BOUNDARY    114   LAYER   1   ROW     8   COL     9   RATE   -100.0000    
 BOUNDARY    115   LAYER   1   ROW     8   COL    10   RATE   -100.0000    
 BOUNDARY    116   LAYER   1   ROW     8   COL    11   RATE   -100.0000    
 BOUNDARY    117   LAYER   1   ROW     8   COL    12   RATE    -26.7818    
 BOUNDARY    118   LAYER   1   ROW     8   COL    13   RATE    -3.39032    
 BOUNDARY    119   LAYER   1   ROW     8   COL    14   RATE     0.00000    
 BOUNDARY    120   LAYER   1   ROW     8   COL    15   RATE     0.00000    
 BOUNDARY    121   LAYER   1   ROW     9   COL     1   RATE    -18.5696    
 BOUNDARY    122   LAYER   1   ROW     9   COL     2   RATE    -59.0698    
 BOUNDARY    123   LAYER   1   ROW     9   COL     3   RATE   -100.0000    
 BOUNDARY    124   LAYER   1   ROW     9   COL     4   RATE   -100.0000    
 BOUNDARY    125   LAYER   1   ROW     9   COL     5   RATE   -100.0000    
 BOUNDARY    126   LAYER   1   ROW     9   COL     6   RATE   -100.0000    
 BOUNDARY    127   LAYER   1   ROW     9   COL     7   RATE   -100.0000    
 BOUNDARY    128   LAYER   1   ROW     9   COL     8   RATE   -100.0000    
 BOUNDARY    129   LAYER   1   ROW     9   COL     9   RATE   -100.0000    
 BOUNDARY    130   LAYER   1   ROW     9   COL    10   RATE   -100.0000    
 BOUNDARY    131   LAYER   1   ROW     9   COL    11   RATE   -100.0000    
 BOUNDARY    132   LAYER   1   ROW     9   COL    12   RATE    -27.8755    
 BOUNDARY    133   LAYER   1   ROW     9   COL    13   RATE    -4.20119    
 BOUNDARY    134   LAYER   1   ROW     9   COL    14   RATE     0.00000    
 BOUNDARY    135   LAYER   1   ROW     9   COL    15   RATE     0.00000    
 BOUNDARY    136   LAYER   1   ROW    10   COL     1   RATE    -67.2832    
 BOUNDARY    137   LAYER   1   ROW    10   COL     2   RATE   -100.0000    
 BOUNDARY    138   LAYER   1   ROW    10   COL     3   RATE   -100.0000    
 BOUNDARY    139   LAYER   1   ROW    10   COL     4   RATE   -100.0000    
 BOUNDARY    140   LAYER   1   ROW    10   COL     5   RATE   -100.0000    
 BOUNDARY    141   LAYER   1   ROW    10   COL     6   RATE   -100.0000    
 BOUNDARY    142   LAYER   1   ROW    10   COL     7   RATE   -100.0000    
 BOUNDARY    143   LAYER   1   ROW    10   COL     8   RATE   -100.0000    
 BOUNDARY    144   LAYER   1   ROW    10   COL     9   RATE   -100.0000    
 BOUNDARY    145   LAYER   1   ROW    10   COL    10   RATE   -100.0000    
 BOUNDARY    146   LAYER   1   ROW    10   COL    11   RATE   -100.0000    
 BOUNDARY    147   LAYER   1   ROW    10   COL    12   RATE    -28.6692    
 BOUNDARY    148   LAYER   1   ROW    10   COL    13   RATE    -4.72590    
 BOUNDARY    149   LAYER   1   ROW    10   COL    14   RATE     0.00000    
 BOUNDARY    150   LAYER   1   ROW    10   COL    15   RATE     0.00000    
1
  HEAD             IN LAYER   1 AT END OF TIME STEP   1 IN STRESS PERIOD    1
  ---------------------------------------------------------------------------

           1       2       3       4       5       6       7       8       9      10      11      12      13      14      15
 ...........................................................................................................................
   1   131.03  134.46  138.50  141.99  144.64  146.38  147.17  147.02  145.90  143.77  140.52  135.97  129.51  120.18  105.65
   2   125.74  132.20  137.70  141.71  144.57  146.38  147.20  147.06  145.96  143.86  140.67  136.24  130.00  121.07  106.75
   3   109.60  128.77  136.80  141.47  144.53  146.41  147.27  147.15  146.07  144.01  140.91  136.68  130.89  123.20  113.38
   4   124.48  131.44  137.38  141.66  144.66  146.53  147.38  147.27  146.21  144.20  141.18  137.10  131.63  124.46  114.86
   5   128.24  132.93  137.98  141.99  144.89  146.72  147.55  147.43  146.37  144.37  141.39  137.39  132.09  125.37  117.40
   6   125.22  132.22  138.09  142.28  145.18  146.97  147.75  147.60  146.53  144.52  141.53  137.48  132.07  125.06  116.78
   7   111.31  130.47  138.29  142.73  145.57  147.27  147.98  147.78  146.68  144.64  141.61  137.46  131.70  123.45  110.00
   8   129.15  135.15  140.06  143.64  146.11  147.61  148.22  147.95  146.81  144.75  141.70  137.52  131.70  123.34  109.77
   9   136.29  138.83  141.87  144.57  146.62  147.92  148.42  148.09  146.91  144.84  141.80  137.68  132.10  124.67  115.17
  10   139.07  140.63  142.89  145.13  146.93  148.10  148.53  148.17  146.97  144.89  141.87  137.80  132.36  125.25  116.02
1
  HEAD             IN LAYER   2 AT END OF TIME STEP   1 IN STRESS PERIOD    1
  ---------------------------------------------------------------------------

           1       2       3       4       5       6       7       8       9      10      11      12      13      14      15
 ...........................................................................................................................
   1   132.00  134.27  137.42  140.47  142.94  144.59  145.35  145.17  144.01  141.85  138.64  134.35  129.01  123.02  117.82
   2   130.23  133.27  136.98  140.31  142.89  144.60  145.38  145.21  144.07  141.94  138.78  134.58  129.40  123.66  118.70
   3   127.65  132.16  136.56  140.18  142.89  144.65  145.45  145.30  144.19  142.10  139.02  134.97  130.07  124.82  120.58
   4   129.58  132.85  136.81  140.32  143.01  144.77  145.58  145.43  144.33  142.28  139.28  135.36  130.69  125.76  121.84
   5   130.78  133.56  137.23  140.61  143.24  144.96  145.75  145.59  144.49  142.46  139.49  135.65  131.08  126.33  122.67
   6   130.47  133.70  137.57  140.97  143.55  145.21  145.95  145.76  144.65  142.61  139.64  135.78  131.16  126.29  122.46
   7   129.56  133.95  138.12  141.48  143.95  145.52  146.18  145.95  144.80  142.74  139.74  135.82  131.05  125.81  121.28
   8   133.39  136.14  139.39  142.27  144.46  145.86  146.42  146.12  144.94  142.85  139.84  135.90  131.09  125.79  121.19
   9   136.60  138.31  140.70  143.04  144.93  146.15  146.61  146.26  145.04  142.94  139.93  136.02  131.32  126.29  122.23
  10   138.27  139.54  141.49  143.52  145.21  146.32  146.72  146.33  145.10  143.00  139.99  136.12  131.50  126.61  122.74

 HEAD WILL BE SAVED ON UNIT 1017 AT END OF TIME STEP    1, STRESS PERIOD    1
1
  VOLUME BUDGET FOR ENTIRE MODEL AT END OF TIME STEP    1, STRESS PERIOD   1
  ------------------------------------------------------------------------------

     CUMULATIVE VOLUME      L**3       RATES FOR THIS TIME STEP      L**3/T
     ------------------                 ------------------------

           IN:                                      IN:
           ---                                      ---
             STORAGE =           0.0000               STORAGE =           0.0000
    WELLS NEAR RIVER =           0.0000      WELLS NEAR RIVER =           0.0000
               RIVER =           0.0000                 RIVER =           0.0000
           GHB LAKES =           0.0000             GHB LAKES =           0.0000
            RECHARGE =       75156.2500              RECHARGE =       75156.2500
             ET SEGS =           0.0000               ET SEGS =           0.0000

            TOTAL IN =       75156.2500              TOTAL IN =       75156.2500

          OUT:                                     OUT:
          ----                                     ----
             STORAGE =           0.0000               STORAGE =           0.0000
    WELLS NEAR RIVER =           0.0000      WELLS NEAR RIVER =           0.0000
               RIVER =       36687.2900                 RIVER =       36687.2900
           GHB LAKES =       29385.9908             GHB LAKES =       29385.9908
            RECHARGE =           0.0000              RECHARGE =           0.0000
             ET SEGS =        9082.9700               ET SEGS =        9082.9700

           TOTAL OUT =       75156.2508             TOTAL OUT =       75156.2508

            IN - OUT =      -8.0139E-04              IN - OUT =      -8.0139E-04

 PERCENT DISCREPANCY =          -0.00     PERCENT DISCREPANCY =          -0.00






         TIME SUMMARY AT END OF TIME STEP    1 IN STRESS PERIOD    1
                    SECONDS     MINUTES      HOURS       DAYS        YEARS
                    -----------------------------------------------------------
   TIME STEP LENGTH  86400.      1440.0      24.000     1.00000     2.73785E-03
 STRESS PERIOD TIME  86400.      1440.0      24.000     1.00000     2.73785E-03
         TOTAL TIME  86400.      1440.0      24.000     1.00000     2.73785E-03


 UPDATING STORAGE VALUES
 #iconvert(nodes) is 0:confined, 1:convertible

                 ICONVERT =         1
 #ss(nodes) specific storage

         SPECIFIC STORAGE =  1.000000E-05
 #sy(nodes) specific yield

           SPECIFIC YIELD =  0.200000    
 END UPDATING STORAGE VALUES
 #        k         i         j      flow      var1    var2 var3

 WEL NO.  LAYER   ROW    COL     STRESS RATE  BOUNDARY NAME         VAR1            VAR2            VAR3            
 -------------------------------------------------------------------------------------------------------------------
      1      2      3      4       0.000      WELL_1                1.0000           2.000           3.000    
      2      2      8      4       0.000      WELL_2                 4.000           5.000           6.000    
      3      2      4      6     -10.000                             7.000           8.000           9.000    
      4      2      5      8      -20.00                             17.00           18.00           19.00    
      5      2      2      9      -40.00                             27.00           28.00           29.00    

 REUSING RIVS FROM LAST STRESS PERIOD

 GHB NO.  LAYER   ROW    COL       STAGE         CONDUCTANCE  BOUNDARY NAME         
 -----------------------------------------------------------------------------------
      1      1      3      1      100.00           1502.                      
      2      1      7      1       110.0           1402.      GHB2_UPPER      
      3      1      7      1       85.00           502.0      GHB2_LOWER      
 # Constant recharge applies stress period 8

 REUSING RCHS FROM LAST STRESS PERIOD
 #BEGIN PERIOD 2
 #  NLARRAY
 #    CONSTANT 1
 #  surface
 #    constant 140.0
 #  rate TimeArraySeries EtsArraySeries
 #  depth
 #    constant 10.0
 #  pxdp
 #    constant 0.2
 #  petm
 #    constant 0.3
 #  pxdp
 #    constant 0.5
 #  petm
 #    constant 0.1
 #end period

 REUSING ETSS FROM LAST STRESS PERIOD
WEL   no.    1 value from time series:   0.0000     for time: 1.0000     to  2.000    
WEL   no.    2 value from time series:   0.0000     for time: 1.0000     to  2.000    
RIV   no.    1 value from time series:   102.00     for time: 1.0000     to  2.000    
RIV   no.    2 value from time series:   102.00     for time: 1.0000     to  2.000    
RIV   no.    3 value from time series:   111.75     for time: 1.0000     to  2.000    
RIV   no.    4 value from time series:   111.75     for time: 1.0000     to  2.000    
RIV   no.    5 value from time series:   116.00     for time: 1.0000     to  2.000    
RIV   no.    6 value from time series:   116.00     for time: 1.0000     to  2.000    
RIV   no.    7 value from time series:   104.80     for time: 1.0000     to  2.000    
RIV   no.    8 value from time series:   104.80     for time: 1.0000     to  2.000    
RIV   no.    9 value from time series:   113.50     for time: 1.0000     to  2.000    
RIV   no.   10 value from time series:   113.50     for time: 1.0000     to  2.000    
WEL   no.    1 value from time series:   0.0000     for time: 1.0000     to  2.000    
WEL   no.    2 value from time series:   0.0000     for time: 1.0000     to  2.000    
RIV   no.    1 value from time series:   102.00     for time: 1.0000     to  2.000    
RIV   no.    2 value from time series:   102.00     for time: 1.0000     to  2.000    
RIV   no.    3 value from time series:   111.75     for time: 1.0000     to  2.000    
RIV   no.    4 value from time series:   111.75     for time: 1.0000     to  2.000    
RIV   no.    5 value from time series:   116.00     for time: 1.0000     to  2.000    
RIV   no.    6 value from time series:   116.00     for time: 1.0000     to  2.000    
RIV   no.    7 value from time series:   104.80     for time: 1.0000     to  2.000    
RIV   no.    8 value from time series:   104.80     for time: 1.0000     to  2.000    
RIV   no.    9 value from time series:   113.50     for time: 1.0000     to  2.000    
RIV   no.   10 value from time series:   113.50     for time: 1.0000     to  2.000    

 OUTPUT CONTROL FOR STRESS PERIOD    2   TIME STEP    1
    PRINT BUDGET
    PRINT HEAD
    PRINT HEAD FOR ALL LAYERS
    SAVE BUDGET
    SAVE HEAD
    SAVE HEAD FOR ALL LAYERS
 UBDSV1 SAVING          STORAGE ON UNIT   1016 AT TIME STEP      1, STRESS PERIOD      2
 UBDSV1 SAVING FLOW RIGHT FACE  ON UNIT   1016 AT TIME STEP      1, STRESS PERIOD      2
 UBDSV1 SAVING FLOW FRONT FACE  ON UNIT   1016 AT TIME STEP      1, STRESS PERIOD      2
 UBDSV1 SAVING FLOW LOWER FACE  ON UNIT   1016 AT TIME STEP      1, STRESS PERIOD      2
 UBDSV4 SAVING WELLS NEAR RIVER ON UNIT   1016 AT TIME STEP      1, STRESS PERIOD      2

 WELLS NEAR RIVER   PERIOD  2   STEP  1
 BOUNDARY      1   LAYER   2   ROW     3   COL     4   RATE     0.00000      WELL_1
 BOUNDARY      2   LAYER   2   ROW     8   COL     4   RATE     0.00000      WELL_2
 BOUNDARY      3   LAYER   2   ROW     4   COL     6   RATE   -10.00000    
 BOUNDARY      4   LAYER   2   ROW     5   COL     8   RATE    -20.0000    
 BOUNDARY      5   LAYER   2   ROW     2   COL     9   RATE    -40.0000    
 UBDSV4 SAVING RIVER            ON UNIT   1016 AT TIME STEP      1, STRESS PERIOD      2

 RIVER              PERIOD  2   STEP  1
 BOUNDARY      1   LAYER   1   ROW     1   COL    15   RATE    -3695.34    
 BOUNDARY      2   LAYER   1   ROW     2   COL    15   RATE    -4795.30      RIV2
 BOUNDARY      3   LAYER   1   ROW     3   COL    15   RATE    -1657.05      RIV3
 BOUNDARY      4   LAYER   1   ROW     4   COL    15   RATE    -3146.55    
 BOUNDARY      5   LAYER   1   ROW     5   COL    15   RATE    -1435.32    
 BOUNDARY      6   LAYER   1   ROW     6   COL    15   RATE    -810.332    
 BOUNDARY      7   LAYER   1   ROW     7   COL    15   RATE    -5268.71      RIVX
 BOUNDARY      8   LAYER   1   ROW     8   COL    15   RATE    -5038.82      RIVX
 BOUNDARY      9   LAYER   1   ROW     9   COL    15   RATE    -1709.60      RIVX
 BOUNDARY     10   LAYER   1   ROW    10   COL    15   RATE    -2561.34    

 GHB LAKES          PERIOD  2   STEP  1
 BOUNDARY      1   LAYER   1   ROW     3   COL     1   RATE    -14421.1    
 BOUNDARY      2   LAYER   1   ROW     7   COL     1   RATE    -1829.50      GHB2_UPPER
 BOUNDARY      3   LAYER   1   ROW     7   COL     1   RATE    -13205.1      GHB2_LOWER
 UBDSV4 SAVING RECHARGE         ON UNIT   1016 AT TIME STEP      1, STRESS PERIOD      2

 RECHARGE           PERIOD  2   STEP  1
 BOUNDARY      1   LAYER   1   ROW     1   COL     1   RATE     503.125    
 BOUNDARY      2   LAYER   1   ROW     1   COL     2   RATE     503.125    
 BOUNDARY      3   LAYER   1   ROW     1   COL     3   RATE     503.125    
 BOUNDARY      4   LAYER   1   ROW     1   COL     4   RATE     503.125    
 BOUNDARY      5   LAYER   1   ROW     1   COL     5   RATE     503.125    
 BOUNDARY      6   LAYER   1   ROW     1   COL     6   RATE     503.125    
 BOUNDARY      7   LAYER   1   ROW     1   COL     7   RATE     503.125    
 BOUNDARY      8   LAYER   1   ROW     1   COL     8   RATE     503.125    
 BOUNDARY      9   LAYER   1   ROW     1   COL     9   RATE     503.125    
 BOUNDARY     10   LAYER   1   ROW     1   COL    10   RATE     503.125    
 BOUNDARY     11   LAYER   1   ROW     1   COL    11   RATE     503.125    
 BOUNDARY     12   LAYER   1   ROW     1   COL    12   RATE     503.125    
 BOUNDARY     13   LAYER   1   ROW     1   COL    13   RATE     503.125    
 BOUNDARY     14   LAYER   1   ROW     1   COL    14   RATE     503.125    
 BOUNDARY     15   LAYER   1   ROW     1   COL    15   RATE     503.125    
 BOUNDARY     16   LAYER   1   ROW     2   COL     1   RATE     503.125    
 BOUNDARY     17   LAYER   1   ROW     2   COL     2   RATE     503.125    
 BOUNDARY     18   LAYER   1   ROW     2   COL     3   RATE     503.125    
 BOUNDARY     19   LAYER   1   ROW     2   COL     4   RATE     503.125    
 BOUNDARY     20   LAYER   1   ROW     2   COL     5   RATE     503.125    
 BOUNDARY     21   LAYER   1   ROW     2   COL     6   RATE     503.125    
 BOUNDARY     22   LAYER   1   ROW     2   COL     7   RATE     503.125    
 BOUNDARY     23   LAYER   1   ROW     2   COL     8   RATE     503.125    
 BOUNDARY     24   LAYER   1   ROW     2   COL     9   RATE     503.125    
 BOUNDARY     25   LAYER   1   ROW     2   COL    10   RATE     503.125    
 BOUNDARY     26   LAYER   1   ROW     2   COL    11   RATE     503.125    
 BOUNDARY     27   LAYER   1   ROW     2   COL    12   RATE     503.125    
 BOUNDARY     28   LAYER   1   ROW     2   COL    13   RATE     503.125    
 BOUNDARY     29   LAYER   1   ROW     2   COL    14   RATE     503.125    
 BOUNDARY     30   LAYER   1   ROW     2   COL    15   RATE     503.125    
 BOUNDARY     31   LAYER   1   ROW     3   COL     1   RATE     503.125    
 BOUNDARY     32   LAYER   1   ROW     3   COL     2   RATE     503.125    
 BOUNDARY     33   LAYER   1   ROW     3   COL     3   RATE     503.125    
 BOUNDARY     34   LAYER   1   ROW     3   COL     4   RATE     503.125    
 BOUNDARY     35   LAYER   1   ROW     3   COL     5   RATE     503.125    
 BOUNDARY     36   LAYER   1   ROW     3   COL     6   RATE     503.125    
 BOUNDARY     37   LAYER   1   ROW     3   COL     7   RATE     503.125    
 BOUNDARY     38   LAYER   1   ROW     3   COL     8   RATE     503.125    
 BOUNDARY     39   LAYER   1   ROW     3   COL     9   RATE     503.125    
 BOUNDARY     40   LAYER   1   ROW     3   COL    10   RATE     503.125    
 BOUNDARY     41   LAYER   1   ROW     3   COL    11   RATE     503.125    
 BOUNDARY     42   LAYER   1   ROW     3   COL    12   RATE     503.125    
 BOUNDARY     43   LAYER   1   ROW     3   COL    13   RATE     503.125    
 BOUNDARY     44   LAYER   1   ROW     3   COL    14   RATE     503.125    
 BOUNDARY     45   LAYER   1   ROW     3   COL    15   RATE     503.125    
 BOUNDARY     46   LAYER   1   ROW     4   COL     1   RATE     503.125    
 BOUNDARY     47   LAYER   1   ROW     4   COL     2   RATE     503.125    
 BOUNDARY     48   LAYER   1   ROW     4   COL     3   RATE     503.125    
 BOUNDARY     49   LAYER   1   ROW     4   COL     4   RATE     503.125    
 BOUNDARY     50   LAYER   1   ROW     4   COL     5   RATE     503.125    
 BOUNDARY     51   LAYER   1   ROW     4   COL     6   RATE     503.125    
 BOUNDARY     52   LAYER   1   ROW     4   COL     7   RATE     503.125    
 BOUNDARY     53   LAYER   1   ROW     4   COL     8   RATE     503.125    
 BOUNDARY     54   LAYER   1   ROW     4   COL     9   RATE     503.125    
 BOUNDARY     55   LAYER   1   ROW     4   COL    10   RATE     503.125    
 BOUNDARY     56   LAYER   1   ROW     4   COL    11   RATE     503.125    
 BOUNDARY     57   LAYER   1   ROW     4   COL    12   RATE     503.125    
 BOUNDARY     58   LAYER   1   ROW     4   COL    13   RATE     503.125    
 BOUNDARY     59   LAYER   1   ROW     4   COL    14   RATE     503.125    
 BOUNDARY     60   LAYER   1   ROW     4   COL    15   RATE     503.125    
 BOUNDARY     61   LAYER   1   ROW     5   COL     1   RATE     503.125    
 BOUNDARY     62   LAYER   1   ROW     5   COL     2   RATE     503.125    
 BOUNDARY     63   LAYER   1   ROW     5   COL     3   RATE     503.125    
 BOUNDARY     64   LAYER   1   ROW     5   COL     4   RATE     503.125    
 BOUNDARY     65   LAYER   1   ROW     5   COL     5   RATE     503.125    
 BOUNDARY     66   LAYER   1   ROW     5   COL     6   RATE     503.125    
 BOUNDARY     67   LAYER   1   ROW     5   COL     7   RATE     503.125    
 BOUNDARY     68   LAYER   1   ROW     5   COL     8   RATE     503.125    
 BOUNDARY     69   LAYER   1   ROW     5   COL     9   RATE     503.125    
 BOUNDARY     70   LAYER   1   ROW     5   COL    10   RATE     503.125    
 BOUNDARY     71   LAYER   1   ROW     5   COL    11   RATE     503.125    
 BOUNDARY     72   LAYER   1   ROW     5   COL    12   RATE     503.125    
 BOUNDARY     73   LAYER   1   ROW     5   COL    13   RATE     503.125    
 BOUNDARY     74   LAYER   1   ROW     5   COL    14   RATE     503.125    
 BOUNDARY     75   LAYER   1   ROW     5   COL    15   RATE     503.125    
 BOUNDARY     76   LAYER   1   ROW     6   COL     1   RATE     503.125    
 BOUNDARY     77   LAYER   1   ROW     6   COL     2   RATE     503.125    
 BOUNDARY     78   LAYER   1   ROW     6   COL     3   RATE     503.125    
 BOUNDARY     79   LAYER   1   ROW     6   COL     4   RATE     503.125    
 BOUNDARY     80   LAYER   1   ROW     6   COL     5   RATE     503.125    
 BOUNDARY     81   LAYER   1   ROW     6   COL     6   RATE     503.125    
 BOUNDARY     82   LAYER   1   ROW     6   COL     7   RATE     503.125    
 BOUNDARY     83   LAYER   1   ROW     6   COL     8   RATE     503.125    
 BOUNDARY     84   LAYER   1   ROW     6   COL     9   RATE     503.125    
 BOUNDARY     85   LAYER   1   ROW     6   COL    10   RATE     503.125    
 BOUNDARY     86   LAYER   1   ROW     6   COL    11   RATE     503.125    
 BOUNDARY     87   LAYER   1   ROW     6   COL    12   RATE     503.125    
 BOUNDARY     88   LAYER   1   ROW     6   COL    13   RATE     503.125    
 BOUNDARY     89   LAYER   1   ROW     6   COL    14   RATE     503.125    
 BOUNDARY     90   LAYER   1   ROW     6   COL    15   RATE     503.125    
 BOUNDARY     91   LAYER   1   ROW     7   COL     1   RATE     503.125    
 BOUNDARY     92   LAYER   1   ROW     7   COL     2   RATE     503.125    
 BOUNDARY     93   LAYER   1   ROW     7   COL     3   RATE     503.125    
 BOUNDARY     94   LAYER   1   ROW     7   COL     4   RATE     503.125    
 BOUNDARY     95   LAYER   1   ROW     7   COL     5   RATE     503.125    
 BOUNDARY     96   LAYER   1   ROW     7   COL     6   RATE     503.125    
 BOUNDARY     97   LAYER   1   ROW     7   COL     7   RATE     503.125    
 BOUNDARY     98   LAYER   1   ROW     7   COL     8   RATE     503.125    
 BOUNDARY     99   LAYER   1   ROW     7   COL     9   RATE     503.125    
 BOUNDARY    100   LAYER   1   ROW     7   COL    10   RATE     503.125    
 BOUNDARY    101   LAYER   1   ROW     7   COL    11   RATE     503.125    
 BOUNDARY    102   LAYER   1   ROW     7   COL    12   RATE     503.125    
 BOUNDARY    103   LAYER   1   ROW     7   COL    13   RATE     503.125    
 BOUNDARY    104   LAYER   1   ROW     7   COL    14   RATE     503.125    
 BOUNDARY    105   LAYER   1   ROW     7   COL    15   RATE     503.125    
 BOUNDARY    106   LAYER   1   ROW     8   COL     1   RATE     503.125    
 BOUNDARY    107   LAYER   1   ROW     8   COL     2   RATE     503.125    
 BOUNDARY    108   LAYER   1   ROW     8   COL     3   RATE     503.125    
 BOUNDARY    109   LAYER   1   ROW     8   COL     4   RATE     503.125    
 BOUNDARY    110   LAYER   1   ROW     8   COL     5   RATE     503.125    
 BOUNDARY    111   LAYER   1   ROW     8   COL     6   RATE     503.125    
 BOUNDARY    112   LAYER   1   ROW     8   COL     7   RATE     503.125    
 BOUNDARY    113   LAYER   1   ROW     8   COL     8   RATE     503.125    
 BOUNDARY    114   LAYER   1   ROW     8   COL     9   RATE     503.125    
 BOUNDARY    115   LAYER   1   ROW     8   COL    10   RATE     503.125    
 BOUNDARY    116   LAYER   1   ROW     8   COL    11   RATE     503.125    
 BOUNDARY    117   LAYER   1   ROW     8   COL    12   RATE     503.125    
 BOUNDARY    118   LAYER   1   ROW     8   COL    13   RATE     503.125    
 BOUNDARY    119   LAYER   1   ROW     8   COL    14   RATE     503.125    
 BOUNDARY    120   LAYER   1   ROW     8   COL    15   RATE     503.125    
 BOUNDARY    121   LAYER   1   ROW     9   COL     1   RATE     503.125    
 BOUNDARY    122   LAYER   1   ROW     9   COL     2   RATE     503.125    
 BOUNDARY    123   LAYER   1   ROW     9   COL     3   RATE     503.125    
 BOUNDARY    124   LAYER   1   ROW     9   COL     4   RATE     503.125    
 BOUNDARY    125   LAYER   1   ROW     9   COL     5   RATE     503.125    
 BOUNDARY    126   LAYER   1   ROW     9   COL     6   RATE     503.125    
 BOUNDARY    127   LAYER   1   ROW     9   COL     7   RATE     503.125    
 BOUNDARY    128   LAYER   1   ROW     9   COL     8   RATE     503.125    
 BOUNDARY    129   LAYER   1   ROW     9   COL     9   RATE     503.125    
 BOUNDARY    130   LAYER   1   ROW     9   COL    10   RATE     503.125    
 BOUNDARY    131   LAYER   1   ROW     9   COL    11   RATE     503.125    
 BOUNDARY    132   LAYER   1   ROW     9   COL    12   RATE     503.125    
 BOUNDARY    133   LAYER   1   ROW     9   COL    13   RATE     503.125    
 BOUNDARY    134   LAYER   1   ROW     9   COL    14   RATE     503.125    
 BOUNDARY    135   LAYER   1   ROW     9   COL    15   RATE     503.125    
 BOUNDARY    136   LAYER   1   ROW    10   COL     1   RATE     503.125    
 BOUNDARY    137   LAYER   1   ROW    10   COL     2   RATE     503.125    
 BOUNDARY    138   LAYER   1   ROW    10   COL     3   RATE     503.125    
 BOUNDARY    139   LAYER   1   ROW    10   COL     4   RATE     503.125    
 BOUNDARY    140   LAYER   1   ROW    10   COL     5   RATE     503.125    
 BOUNDARY    141   LAYER   1   ROW    10   COL     6   RATE     503.125    
 BOUNDARY    142   LAYER   1   ROW    10   COL     7   RATE     503.125    
 BOUNDARY    143   LAYER   1   ROW    10   COL     8   RATE     503.125    
 BOUNDARY    144   LAYER   1   ROW    10   COL     9   RATE     503.125    
 BOUNDARY    145   LAYER   1   ROW    10   COL    10   RATE     503.125    
 BOUNDARY    146   LAYER   1   ROW    10   COL    11   RATE     503.125    
 BOUNDARY    147   LAYER   1   ROW    10   COL    12   RATE     503.125    
 BOUNDARY    148   LAYER   1   ROW    10   COL    13   RATE     503.125    
 BOUNDARY    149   LAYER   1   ROW    10   COL    14   RATE     503.125    
 BOUNDARY    150   LAYER   1   ROW    10   COL    15   RATE     503.125    
 UBDSV4 SAVING ET SEGS          ON UNIT   1016 AT TIME STEP      1, STRESS PERIOD      2

 ET SEGS            PERIOD  2   STEP  1
 BOUNDARY      1   LAYER   1   ROW     1   COL     1   RATE    -2.06495    
 BOUNDARY      2   LAYER   1   ROW     1   COL     2   RATE    -8.91757    
 BOUNDARY      3   LAYER   1   ROW     1   COL     3   RATE    -47.6446    
 BOUNDARY      4   LAYER   1   ROW     1   COL     4   RATE   -100.0000    
 BOUNDARY      5   LAYER   1   ROW     1   COL     5   RATE   -100.0000    
 BOUNDARY      6   LAYER   1   ROW     1   COL     6   RATE   -100.0000    
 BOUNDARY      7   LAYER   1   ROW     1   COL     7   RATE   -100.0000    
 BOUNDARY      8   LAYER   1   ROW     1   COL     8   RATE   -100.0000    
 BOUNDARY      9   LAYER   1   ROW     1   COL     9   RATE   -100.0000    
 BOUNDARY     10   LAYER   1   ROW     1   COL    10   RATE   -100.0000    
 BOUNDARY     11   LAYER   1   ROW     1   COL    11   RATE   -100.0000    
 BOUNDARY     12   LAYER   1   ROW     1   COL    12   RATE    -16.4959    
 BOUNDARY     13   LAYER   1   ROW     1   COL    13   RATE     0.00000    
 BOUNDARY     14   LAYER   1   ROW     1   COL    14   RATE     0.00000    
 BOUNDARY     15   LAYER   1   ROW     1   COL    15   RATE     0.00000    
 BOUNDARY     16   LAYER   1   ROW     2   COL     1   RATE     0.00000    
 BOUNDARY     17   LAYER   1   ROW     2   COL     2   RATE    -4.40243    
 BOUNDARY     18   LAYER   1   ROW     2   COL     3   RATE    -27.9897    
 BOUNDARY     19   LAYER   1   ROW     2   COL     4   RATE   -100.0000    
 BOUNDARY     20   LAYER   1   ROW     2   COL     5   RATE   -100.0000    
 BOUNDARY     21   LAYER   1   ROW     2   COL     6   RATE   -100.0000    
 BOUNDARY     22   LAYER   1   ROW     2   COL     7   RATE   -100.0000    
 BOUNDARY     23   LAYER   1   ROW     2   COL     8   RATE   -100.0000    
 BOUNDARY     24   LAYER   1   ROW     2   COL     9   RATE   -100.0000    
 BOUNDARY     25   LAYER   1   ROW     2   COL    10   RATE   -100.0000    
 BOUNDARY     26   LAYER   1   ROW     2   COL    11   RATE   -100.0000    
 BOUNDARY     27   LAYER   1   ROW     2   COL    12   RATE    -18.2357    
 BOUNDARY     28   LAYER   1   ROW     2   COL    13   RATE     0.00000    
 BOUNDARY     29   LAYER   1   ROW     2   COL    14   RATE     0.00000    
 BOUNDARY     30   LAYER   1   ROW     2   COL    15   RATE     0.00000    
 BOUNDARY     31   LAYER   1   ROW     3   COL     1   RATE     0.00000    
 BOUNDARY     32   LAYER   1   ROW     3   COL     2   RATE     0.00000    
 BOUNDARY     33   LAYER   1   ROW     3   COL     3   RATE    -22.0009    
 BOUNDARY     34   LAYER   1   ROW     3   COL     4   RATE   -100.0000    
 BOUNDARY     35   LAYER   1   ROW     3   COL     5   RATE   -100.0000    
 BOUNDARY     36   LAYER   1   ROW     3   COL     6   RATE   -100.0000    
 BOUNDARY     37   LAYER   1   ROW     3   COL     7   RATE   -100.0000    
 BOUNDARY     38   LAYER   1   ROW     3   COL     8   RATE   -100.0000    
 BOUNDARY     39   LAYER   1   ROW     3   COL     9   RATE   -100.0000    
 BOUNDARY     40   LAYER   1   ROW     3   COL    10   RATE   -100.0000    
 BOUNDARY     41   LAYER   1   ROW     3   COL    11   RATE   -100.0000    
 BOUNDARY     42   LAYER   1   ROW     3   COL    12   RATE    -21.1700    
 BOUNDARY     43   LAYER   1   ROW     3   COL    13   RATE    -1.78408    
 BOUNDARY     44   LAYER   1   ROW     3   COL    14   RATE     0.00000    
 BOUNDARY     45   LAYER   1   ROW     3   COL    15   RATE     0.00000    
 BOUNDARY     46   LAYER   1   ROW     4   COL     1   RATE     0.00000    
 BOUNDARY     47   LAYER   1   ROW     4   COL     2   RATE    -2.88851    
 BOUNDARY     48   LAYER   1   ROW     4   COL     3   RATE    -25.8659    
 BOUNDARY     49   LAYER   1   ROW     4   COL     4   RATE   -100.0000    
 BOUNDARY     50   LAYER   1   ROW     4   COL     5   RATE   -100.0000    
 BOUNDARY     51   LAYER   1   ROW     4   COL     6   RATE   -100.0000    
 BOUNDARY     52   LAYER   1   ROW     4   COL     7   RATE   -100.0000    
 BOUNDARY     53   LAYER   1   ROW     4   COL     8   RATE   -100.0000    
 BOUNDARY     54   LAYER   1   ROW     4   COL     9   RATE   -100.0000    
 BOUNDARY     55   LAYER   1   ROW     4   COL    10   RATE   -100.0000    
 BOUNDARY     56   LAYER   1   ROW     4   COL    11   RATE   -100.0000    
 BOUNDARY     57   LAYER   1   ROW     4   COL    12   RATE    -23.9711    
 BOUNDARY     58   LAYER   1   ROW     4   COL    13   RATE    -3.25041    
 BOUNDARY     59   LAYER   1   ROW     4   COL    14   RATE     0.00000    
 BOUNDARY     60   LAYER   1   ROW     4   COL    15   RATE     0.00000    
 BOUNDARY     61   LAYER   1   ROW     5   COL     1   RATE     0.00000    
 BOUNDARY     62   LAYER   1   ROW     5   COL     2   RATE    -5.86177    
 BOUNDARY     63   LAYER   1   ROW     5   COL     3   RATE    -29.8533    
 BOUNDARY     64   LAYER   1   ROW     5   COL     4   RATE   -100.0000    
 BOUNDARY     65   LAYER   1   ROW     5   COL     5   RATE   -100.0000    
 BOUNDARY     66   LAYER   1   ROW     5   COL     6   RATE   -100.0000    
 BOUNDARY     67   LAYER   1   ROW     5   COL     7   RATE   -100.0000    
 BOUNDARY     68   LAYER   1   ROW     5   COL     8   RATE   -100.0000    
 BOUNDARY     69   LAYER   1   ROW     5   COL     9   RATE   -100.0000    
 BOUNDARY     70   LAYER   1   ROW     5   COL    10   RATE   -100.0000    
 BOUNDARY     71   LAYER   1   ROW     5   COL    11   RATE   -100.0000    
 BOUNDARY     72   LAYER   1   ROW     5   COL    12   RATE    -25.9136    
 BOUNDARY     73   LAYER   1   ROW     5   COL    13   RATE    -4.17083    
 BOUNDARY     74   LAYER   1   ROW     5   COL    14   RATE     0.00000    
 BOUNDARY     75   LAYER   1   ROW     5   COL    15   RATE     0.00000    
 BOUNDARY     76   LAYER   1   ROW     6   COL     1   RATE     0.00000    
 BOUNDARY     77   LAYER   1   ROW     6   COL     2   RATE    -4.43380    
 BOUNDARY     78   LAYER   1   ROW     6   COL     3   RATE    -33.1011    
 BOUNDARY     79   LAYER   1   ROW     6   COL     4   RATE   -100.0000    
 BOUNDARY     80   LAYER   1   ROW     6   COL     5   RATE   -100.0000    
 BOUNDARY     81   LAYER   1   ROW     6   COL     6   RATE   -100.0000    
 BOUNDARY     82   LAYER   1   ROW     6   COL     7   RATE   -100.0000    
 BOUNDARY     83   LAYER   1   ROW     6   COL     8   RATE   -100.0000    
 BOUNDARY     84   LAYER   1   ROW     6   COL     9   RATE   -100.0000    
 BOUNDARY     85   LAYER   1   ROW     6   COL    10   RATE   -100.0000    
 BOUNDARY     86   LAYER   1   ROW     6   COL    11   RATE   -100.0000    
 BOUNDARY     87   LAYER   1   ROW     6   COL    12   RATE    -26.5628    
 BOUNDARY     88   LAYER   1   ROW     6   COL    13   RATE    -4.13070    
 BOUNDARY     89   LAYER   1   ROW     6   COL    14   RATE     0.00000    
 BOUNDARY     90   LAYER   1   ROW     6   COL    15   RATE     0.00000    
 BOUNDARY     91   LAYER   1   ROW     7   COL     1   RATE     0.00000    
 BOUNDARY     92   LAYER   1   ROW     7   COL     2   RATE   -0.942299    
 BOUNDARY     93   LAYER   1   ROW     7   COL     3   RATE    -39.9881    
 BOUNDARY     94   LAYER   1   ROW     7   COL     4   RATE   -100.0000    
 BOUNDARY     95   LAYER   1   ROW     7   COL     5   RATE   -100.0000    
 BOUNDARY     96   LAYER   1   ROW     7   COL     6   RATE   -100.0000    
 BOUNDARY     97   LAYER   1   ROW     7   COL     7   RATE   -100.0000    
 BOUNDARY     98   LAYER   1   ROW     7   COL     8   RATE   -100.0000    
 BOUNDARY     99   LAYER   1   ROW     7   COL     9   RATE   -100.0000    
 BOUNDARY    100   LAYER   1   ROW     7   COL    10   RATE   -100.0000    
 BOUNDARY    101   LAYER   1   ROW     7   COL    11   RATE   -100.0000    
 BOUNDARY    102   LAYER   1   ROW     7   COL    12   RATE    -26.3973    
 BOUNDARY    103   LAYER   1   ROW     7   COL    13   RATE    -3.39173    
 BOUNDARY    104   LAYER   1   ROW     7   COL    14   RATE     0.00000    
 BOUNDARY    105   LAYER   1   ROW     7   COL    15   RATE     0.00000    
 BOUNDARY    106   LAYER   1   ROW     8   COL     1   RATE     0.00000    
 BOUNDARY    107   LAYER   1   ROW     8   COL     2   RATE    -10.9920    
 BOUNDARY    108   LAYER   1   ROW     8   COL     3   RATE   -100.0000    
 BOUNDARY    109   LAYER   1   ROW     8   COL     4   RATE   -100.0000    
 BOUNDARY    110   LAYER   1   ROW     8   COL     5   RATE   -100.0000    
 BOUNDARY    111   LAYER   1   ROW     8   COL     6   RATE   -100.0000    
 BOUNDARY    112   LAYER   1   ROW     8   COL     7   RATE   -100.0000    
 BOUNDARY    113   LAYER   1   ROW     8   COL     8   RATE   -100.0000    
 BOUNDARY    114   LAYER   1   ROW     8   COL     9   RATE   -100.0000    
 BOUNDARY    115   LAYER   1   ROW     8   COL    10   RATE   -100.0000    
 BOUNDARY    116   LAYER   1   ROW     8   COL    11   RATE   -100.0000    
 BOUNDARY    117   LAYER   1   ROW     8   COL    12   RATE    -26.7823    
 BOUNDARY    118   LAYER   1   ROW     8   COL    13   RATE    -3.39049    
 BOUNDARY    119   LAYER   1   ROW     8   COL    14   RATE     0.00000    
 BOUNDARY    120   LAYER   1   ROW     8   COL    15   RATE     0.00000    
 BOUNDARY    121   LAYER   1   ROW     9   COL     1   RATE    -18.5701    
 BOUNDARY    122   LAYER   1   ROW     9   COL     2   RATE    -59.0727    
 BOUNDARY    123   LAYER   1   ROW     9   COL     3   RATE   -100.0000    
 BOUNDARY    124   LAYER   1   ROW     9   COL     4   RATE   -100.0000    
 BOUNDARY    125   LAYER   1   ROW     9   COL     5   RATE   -100.0000    
 BOUNDARY    126   LAYER   1   ROW     9   COL     6   RATE   -100.0000    
 BOUNDARY    127   LAYER   1   ROW     9   COL     7   RATE   -100.0000    
 BOUNDARY    128   LAYER   1   ROW     9   COL     8   RATE   -100.0000    
 BOUNDARY    129   LAYER   1   ROW     9   COL     9   RATE   -100.0000    
 BOUNDARY    130   LAYER   1   ROW     9   COL    10   RATE   -100.0000    
 BOUNDARY    131   LAYER   1   ROW     9   COL    11   RATE   -100.0000    
 BOUNDARY    132   LAYER   1   ROW     9   COL    12   RATE    -27.8760    
 BOUNDARY    133   LAYER   1   ROW     9   COL    13   RATE    -4.20136    
 BOUNDARY    134   LAYER   1   ROW     9   COL    14   RATE     0.00000    
 BOUNDARY    135   LAYER   1   ROW     9   COL    15   RATE     0.00000    
 BOUNDARY    136   LAYER   1   ROW    10   COL     1   RATE    -67.2861    
 BOUNDARY    137   LAYER   1   ROW    10   COL     2   RATE   -100.0000    
 BOUNDARY    138   LAYER   1   ROW    10   COL     3   RATE   -100.0000    
 BOUNDARY    139   LAYER   1   ROW    10   COL     4   RATE   -100.0000    
 BOUNDARY    140   LAYER   1   ROW    10   COL     5   RATE   -100.0000    
 BOUNDARY    141   LAYER   1   ROW    10   COL     6   RATE   -100.0000    
 BOUNDARY    142   LAYER   1   ROW    10   COL     7   RATE   -100.0000    
 BOUNDARY    143   LAYER   1   ROW    10   COL     8   RATE   -100.0000    
 BOUNDARY    144   LAYER   1   ROW    10   COL     9   RATE   -100.0000    
 BOUNDARY    145   LAYER   1   ROW    10   COL    10   RATE   -100.0000    
 BOUNDARY    146   LAYER   1   ROW    10   COL    11   RATE   -100.0000    
 BOUNDARY    147   LAYER   1   ROW    10   COL    12   RATE    -28.6698    
 BOUNDARY    148   LAYER   1   ROW    10   COL    13   RATE    -4.72607    
 BOUNDARY    149   LAYER   1   ROW    10   COL    14   RATE     0.00000    
 BOUNDARY    150   LAYER   1   ROW    10   COL    15   RATE     0.00000    
1
  HEAD             IN LAYER   1 AT END OF TIME STEP   1 IN STRESS PERIOD    2
  ---------------------------------------------------------------------------

           1       2       3       4       5       6       7       8       9      10      11      12      13      14      15
 ...........................................................................................................................
   1   131.03  134.46  138.50  141.99  144.64  146.38  147.17  147.02  145.90  143.77  140.52  135.97  129.51  120.18  105.69
   2   125.74  132.20  137.70  141.71  144.57  146.38  147.20  147.06  145.96  143.86  140.67  136.24  130.00  121.07  106.79
   3   109.60  128.77  136.80  141.47  144.53  146.41  147.27  147.15  146.07  144.01  140.91  136.68  130.89  123.20  113.40
   4   124.48  131.44  137.38  141.66  144.66  146.53  147.38  147.27  146.21  144.20  141.18  137.10  131.63  124.46  114.88
   5   128.24  132.93  137.98  141.99  144.89  146.72  147.55  147.43  146.37  144.37  141.39  137.39  132.09  125.37  117.43
   6   125.22  132.22  138.09  142.28  145.18  146.97  147.75  147.60  146.53  144.52  141.53  137.48  132.07  125.06  116.81
   7   111.30  130.47  138.29  142.73  145.57  147.27  147.98  147.78  146.68  144.64  141.61  137.46  131.70  123.45  110.03
   8   129.15  135.15  140.06  143.64  146.11  147.61  148.22  147.95  146.81  144.75  141.70  137.52  131.70  123.34  109.80
   9   136.29  138.83  141.87  144.57  146.62  147.92  148.42  148.09  146.91  144.84  141.80  137.68  132.10  124.67  115.19
  10   139.07  140.63  142.89  145.13  146.93  148.10  148.53  148.17  146.97  144.89  141.87  137.80  132.36  125.25  116.04
1
  HEAD             IN LAYER   2 AT END OF TIME STEP   1 IN STRESS PERIOD    2
  ---------------------------------------------------------------------------

           1       2       3       4       5       6       7       8       9      10      11      12      13      14      15
 ...........................................................................................................................
   1   132.00  134.27  137.42  140.47  142.94  144.59  145.35  145.16  143.99  141.84  138.64  134.35  129.01  123.02  117.82
   2   130.23  133.27  136.98  140.31  142.89  144.60  145.38  145.19  143.93  141.92  138.78  134.58  129.40  123.66  118.70
   3   127.65  132.16  136.56  140.18  142.89  144.64  145.45  145.29  144.16  142.09  139.02  134.97  130.07  124.82  120.59
   4   129.58  132.85  136.81  140.32  143.01  144.73  145.57  145.42  144.33  142.28  139.28  135.36  130.69  125.76  121.84
   5   130.78  133.56  137.23  140.61  143.24  144.96  145.73  145.52  144.48  142.46  139.49  135.65  131.08  126.33  122.67
   6   130.47  133.70  137.57  140.97  143.55  145.21  145.95  145.75  144.65  142.61  139.64  135.78  131.16  126.29  122.47
   7   129.56  133.95  138.12  141.48  143.95  145.52  146.18  145.95  144.80  142.74  139.74  135.82  131.05  125.81  121.28
   8   133.39  136.14  139.39  142.27  144.46  145.86  146.42  146.12  144.94  142.85  139.84  135.90  131.09  125.79  121.20
   9   136.60  138.31  140.70  143.04  144.93  146.15  146.61  146.26  145.04  142.94  139.93  136.03  131.32  126.29  122.23
  10   138.27  139.54  141.49  143.52  145.21  146.32  146.72  146.33  145.10  143.00  139.99  136.12  131.50  126.62  122.74

 HEAD WILL BE SAVED ON UNIT 1017 AT END OF TIME STEP    1, STRESS PERIOD    2
1
  VOLUME BUDGET FOR ENTIRE MODEL AT END OF TIME STEP    1, STRESS PERIOD   2
  ------------------------------------------------------------------------------

     CUMULATIVE VOLUME      L**3       RATES FOR THIS TIME STEP      L**3/T
     ------------------                 ------------------------

           IN:                                      IN:
           ---                                      ---
             STORAGE =         122.5212               STORAGE =         122.5212
    WELLS NEAR RIVER =           0.0000      WELLS NEAR RIVER =           0.0000
               RIVER =           0.0000                 RIVER =           0.0000
           GHB LAKES =           0.0000             GHB LAKES =           0.0000
            RECHARGE =      150625.0000              RECHARGE =       75468.7500
             ET SEGS =           0.0000               ET SEGS =           0.0000

            TOTAL IN =      150747.5212              TOTAL IN =       75591.2712

          OUT:                                     OUT:
          ----                                     ----
             STORAGE =        6864.1883               STORAGE =        6864.1883
    WELLS NEAR RIVER =          70.0000      WELLS NEAR RIVER =          70.0000
               RIVER =       66805.6627                 RIVER =       30118.3726
           GHB LAKES =       58841.7052             GHB LAKES =       29455.7144
            RECHARGE =           0.0000              RECHARGE =           0.0000
             ET SEGS =       18165.9659               ET SEGS =        9082.9959

           TOTAL OUT =      150747.5220             TOTAL OUT =       75591.2712

            IN - OUT =      -8.0576E-04              IN - OUT =      -4.3699E-06

 PERCENT DISCREPANCY =          -0.00     PERCENT DISCREPANCY =          -0.00






         TIME SUMMARY AT END OF TIME STEP    1 IN STRESS PERIOD    2
                    SECONDS     MINUTES      HOURS       DAYS        YEARS
                    -----------------------------------------------------------
   TIME STEP LENGTH  86400.      1440.0      24.000     1.00000     2.73785E-03
 STRESS PERIOD TIME  86400.      1440.0      24.000     1.00000     2.73785E-03
         TOTAL TIME 1.72800E+05  2880.0      48.000      2.0000     5.47570E-03
WEL   no.    1 value from time series:   0.0000     for time:  2.000     to  3.000    
WEL   no.    2 value from time series:   0.0000     for time:  2.000     to  3.000    
RIV   no.    1 value from time series:   104.00     for time:  2.000     to  3.000    
RIV   no.    2 value from time series:   104.00     for time:  2.000     to  3.000    
RIV   no.    3 value from time series:   112.40     for time:  2.000     to  3.000    
RIV   no.    4 value from time series:   112.40     for time:  2.000     to  3.000    
RIV   no.    5 value from time series:   116.45     for time:  2.000     to  3.000    
RIV   no.    6 value from time series:   116.45     for time:  2.000     to  3.000    
RIV   no.    7 value from time series:   106.45     for time:  2.000     to  3.000    
RIV   no.    8 value from time series:   106.45     for time:  2.000     to  3.000    
RIV   no.    9 value from time series:   114.00     for time:  2.000     to  3.000    
RIV   no.   10 value from time series:   114.00     for time:  2.000     to  3.000    
WEL   no.    1 value from time series:   0.0000     for time:  2.000     to  3.000    
WEL   no.    2 value from time series:   0.0000     for time:  2.000     to  3.000    
RIV   no.    1 value from time series:   104.00     for time:  2.000     to  3.000    
RIV   no.    2 value from time series:   104.00     for time:  2.000     to  3.000    
RIV   no.    3 value from time series:   112.40     for time:  2.000     to  3.000    
RIV   no.    4 value from time series:   112.40     for time:  2.000     to  3.000    
RIV   no.    5 value from time series:   116.45     for time:  2.000     to  3.000    
RIV   no.    6 value from time series:   116.45     for time:  2.000     to  3.000    
RIV   no.    7 value from time series:   106.45     for time:  2.000     to  3.000    
RIV   no.    8 value from time series:   106.45     for time:  2.000     to  3.000    
RIV   no.    9 value from time series:   114.00     for time:  2.000     to  3.000    
RIV   no.   10 value from time series:   114.00     for time:  2.000     to  3.000    

 OUTPUT CONTROL FOR STRESS PERIOD    2   TIME STEP    2
    SAVE BUDGET
    SAVE HEAD
    SAVE HEAD FOR ALL LAYERS
 UBDSV1 SAVING          STORAGE ON UNIT   1016 AT TIME STEP      2, STRESS PERIOD      2
 UBDSV1 SAVING FLOW RIGHT FACE  ON UNIT   1016 AT TIME STEP      2, STRESS PERIOD      2
 UBDSV1 SAVING FLOW FRONT FACE  ON UNIT   1016 AT TIME STEP      2, STRESS PERIOD      2
 UBDSV1 SAVING FLOW LOWER FACE  ON UNIT   1016 AT TIME STEP      2, STRESS PERIOD      2
 UBDSV4 SAVING WELLS NEAR RIVER ON UNIT   1016 AT TIME STEP      2, STRESS PERIOD      2

 WELLS NEAR RIVER   PERIOD  2   STEP  2
 BOUNDARY      1   LAYER   2   ROW     3   COL     4   RATE     0.00000      WELL_1
 BOUNDARY      2   LAYER   2   ROW     8   COL     4   RATE     0.00000      WELL_2
 BOUNDARY      3   LAYER   2   ROW     4   COL     6   RATE   -10.00000    
 BOUNDARY      4   LAYER   2   ROW     5   COL     8   RATE    -20.0000    
 BOUNDARY      5   LAYER   2   ROW     2   COL     9   RATE    -40.0000    
 UBDSV4 SAVING RIVER            ON UNIT   1016 AT TIME STEP      2, STRESS PERIOD      2

 RIVER              PERIOD  2   STEP  2
 BOUNDARY      1   LAYER   1   ROW     1   COL    15   RATE    -1807.61    
 BOUNDARY      2   LAYER   1   ROW     2   COL    15   RATE    -2905.17      RIV2
 BOUNDARY      3   LAYER   1   ROW     3   COL    15   RATE    -1049.45      RIV3
 BOUNDARY      4   LAYER   1   ROW     4   COL    15   RATE    -2537.86    
 BOUNDARY      5   LAYER   1   ROW     5   COL    15   RATE    -1024.69    
 BOUNDARY      6   LAYER   1   ROW     6   COL    15   RATE    -399.726    
 BOUNDARY      7   LAYER   1   ROW     7   COL    15   RATE    -3699.36      RIVX
 BOUNDARY      8   LAYER   1   ROW     8   COL    15   RATE    -3467.93      RIVX
 BOUNDARY      9   LAYER   1   ROW     9   COL    15   RATE    -1243.92      RIVX
 BOUNDARY     10   LAYER   1   ROW    10   COL    15   RATE    -2094.80    

 GHB LAKES          PERIOD  2   STEP  2
 BOUNDARY      1   LAYER   1   ROW     3   COL     1   RATE    -14420.4    
 BOUNDARY      2   LAYER   1   ROW     7   COL     1   RATE    -1827.13      GHB2_UPPER
 BOUNDARY      3   LAYER   1   ROW     7   COL     1   RATE    -13204.2      GHB2_LOWER
 UBDSV4 SAVING RECHARGE         ON UNIT   1016 AT TIME STEP      2, STRESS PERIOD      2

 RECHARGE           PERIOD  2   STEP  2
 BOUNDARY      1   LAYER   1   ROW     1   COL     1   RATE     505.208    
 BOUNDARY      2   LAYER   1   ROW     1   COL     2   RATE     505.208    
 BOUNDARY      3   LAYER   1   ROW     1   COL     3   RATE     505.208    
 BOUNDARY      4   LAYER   1   ROW     1   COL     4   RATE     505.208    
 BOUNDARY      5   LAYER   1   ROW     1   COL     5   RATE     505.208    
 BOUNDARY      6   LAYER   1   ROW     1   COL     6   RATE     505.208    
 BOUNDARY      7   LAYER   1   ROW     1   COL     7   RATE     505.208    
 BOUNDARY      8   LAYER   1   ROW     1   COL     8   RATE     505.208    
 BOUNDARY      9   LAYER   1   ROW     1   COL     9   RATE     505.208    
 BOUNDARY     10   LAYER   1   ROW     1   COL    10   RATE     505.208    
 BOUNDARY     11   LAYER   1   ROW     1   COL    11   RATE     505.208    
 BOUNDARY     12   LAYER   1   ROW     1   COL    12   RATE     505.208    
 BOUNDARY     13   LAYER   1   ROW     1   COL    13   RATE     505.208    
 BOUNDARY     14   LAYER   1   ROW     1   COL    14   RATE     505.208    
 BOUNDARY     15   LAYER   1   ROW     1   COL    15   RATE     505.208    
 BOUNDARY     16   LAYER   1   ROW     2   COL     1   RATE     505.208    
 BOUNDARY     17   LAYER   1   ROW     2   COL     2   RATE     505.208    
 BOUNDARY     18   LAYER   1   ROW     2   COL     3   RATE     505.208    
 BOUNDARY     19   LAYER   1   ROW     2   COL     4   RATE     505.208    
 BOUNDARY     20   LAYER   1   ROW     2   COL     5   RATE     505.208    
 BOUNDARY     21   LAYER   1   ROW     2   COL     6   RATE     505.208    
 BOUNDARY     22   LAYER   1   ROW     2   COL     7   RATE     505.208    
 BOUNDARY     23   LAYER   1   ROW     2   COL     8   RATE     505.208    
 BOUNDARY     24   LAYER   1   ROW     2   COL     9   RATE     505.208    
 BOUNDARY     25   LAYER   1   ROW     2   COL    10   RATE     505.208    
 BOUNDARY     26   LAYER   1   ROW     2   COL    11   RATE     505.208    
 BOUNDARY     27   LAYER   1   ROW     2   COL    12   RATE     505.208    
 BOUNDARY     28   LAYER   1   ROW     2   COL    13   RATE     505.208    
 BOUNDARY     29   LAYER   1   ROW     2   COL    14   RATE     505.208    
 BOUNDARY     30   LAYER   1   ROW     2   COL    15   RATE     505.208    
 BOUNDARY     31   LAYER   1   ROW     3   COL     1   RATE     505.208    
 BOUNDARY     32   LAYER   1   ROW     3   COL     2   RATE     505.208    
 BOUNDARY     33   LAYER   1   ROW     3   COL     3   RATE     505.208    
 BOUNDARY     34   LAYER   1   ROW     3   COL     4   RATE     505.208    
 BOUNDARY     35   LAYER   1   ROW     3   COL     5   RATE     505.208    
 BOUNDARY     36   LAYER   1   ROW     3   COL     6   RATE     505.208    
 BOUNDARY     37   LAYER   1   ROW     3   COL     7   RATE     505.208    
 BOUNDARY     38   LAYER   1   ROW     3   COL     8   RATE     505.208    
 BOUNDARY     39   LAYER   1   ROW     3   COL     9   RATE     505.208    
 BOUNDARY     40   LAYER   1   ROW     3   COL    10   RATE     505.208    
 BOUNDARY     41   LAYER   1   ROW     3   COL    11   RATE     505.208    
 BOUNDARY     42   LAYER   1   ROW     3   COL    12   RATE     505.208    
 BOUNDARY     43   LAYER   1   ROW     3   COL    13   RATE     505.208    
 BOUNDARY     44   LAYER   1   ROW     3   COL    14   RATE     505.208    
 BOUNDARY     45   LAYER   1   ROW     3   COL    15   RATE     505.208    
 BOUNDARY     46   LAYER   1   ROW     4   COL     1   RATE     505.208    
 BOUNDARY     47   LAYER   1   ROW     4   COL     2   RATE     505.208    
 BOUNDARY     48   LAYER   1   ROW     4   COL     3   RATE     505.208    
 BOUNDARY     49   LAYER   1   ROW     4   COL     4   RATE     505.208    
 BOUNDARY     50   LAYER   1   ROW     4   COL     5   RATE     505.208    
 BOUNDARY     51   LAYER   1   ROW     4   COL     6   RATE     505.208    
 BOUNDARY     52   LAYER   1   ROW     4   COL     7   RATE     505.208    
 BOUNDARY     53   LAYER   1   ROW     4   COL     8   RATE     505.208    
 BOUNDARY     54   LAYER   1   ROW     4   COL     9   RATE     505.208    
 BOUNDARY     55   LAYER   1   ROW     4   COL    10   RATE     505.208    
 BOUNDARY     56   LAYER   1   ROW     4   COL    11   RATE     505.208    
 BOUNDARY     57   LAYER   1   ROW     4   COL    12   RATE     505.208    
 BOUNDARY     58   LAYER   1   ROW     4   COL    13   RATE     505.208    
 BOUNDARY     59   LAYER   1   ROW     4   COL    14   RATE     505.208    
 BOUNDARY     60   LAYER   1   ROW     4   COL    15   RATE     505.208    
 BOUNDARY     61   LAYER   1   ROW     5   COL     1   RATE     505.208    
 BOUNDARY     62   LAYER   1   ROW     5   COL     2   RATE     505.208    
 BOUNDARY     63   LAYER   1   ROW     5   COL     3   RATE     505.208    
 BOUNDARY     64   LAYER   1   ROW     5   COL     4   RATE     505.208    
 BOUNDARY     65   LAYER   1   ROW     5   COL     5   RATE     505.208    
 BOUNDARY     66   LAYER   1   ROW     5   COL     6   RATE     505.208    
 BOUNDARY     67   LAYER   1   ROW     5   COL     7   RATE     505.208    
 BOUNDARY     68   LAYER   1   ROW     5   COL     8   RATE     505.208    
 BOUNDARY     69   LAYER   1   ROW     5   COL     9   RATE     505.208    
 BOUNDARY     70   LAYER   1   ROW     5   COL    10   RATE     505.208    
 BOUNDARY     71   LAYER   1   ROW     5   COL    11   RATE     505.208    
 BOUNDARY     72   LAYER   1   ROW     5   COL    12   RATE     505.208    
 BOUNDARY     73   LAYER   1   ROW     5   COL    13   RATE     505.208    
 BOUNDARY     74   LAYER   1   ROW     5   COL    14   RATE     505.208    
 BOUNDARY     75   LAYER   1   ROW     5   COL    15   RATE     505.208    
 BOUNDARY     76   LAYER   1   ROW     6   COL     1   RATE     505.208    
 BOUNDARY     77   LAYER   1   ROW     6   COL     2   RATE     505.208    
 BOUNDARY     78   LAYER   1   ROW     6   COL     3   RATE     505.208    
 BOUNDARY     79   LAYER   1   ROW     6   COL     4   RATE     505.208    
 BOUNDARY     80   LAYER   1   ROW     6   COL     5   RATE     505.208    
 BOUNDARY     81   LAYER   1   ROW     6   COL     6   RATE     505.208    
 BOUNDARY     82   LAYER   1   ROW     6   COL     7   RATE     505.208    
 BOUNDARY     83   LAYER   1   ROW     6   COL     8   RATE     505.208    
 BOUNDARY     84   LAYER   1   ROW     6   COL     9   RATE     505.208    
 BOUNDARY     85   LAYER   1   ROW     6   COL    10   RATE     505.208    
 BOUNDARY     86   LAYER   1   ROW     6   COL    11   RATE     505.208    
 BOUNDARY     87   LAYER   1   ROW     6   COL    12   RATE     505.208    
 BOUNDARY     88   LAYER   1   ROW     6   COL    13   RATE     505.208    
 BOUNDARY     89   LAYER   1   ROW     6   COL    14   RATE     505.208    
 BOUNDARY     90   LAYER   1   ROW     6   COL    15   RATE     505.208    
 BOUNDARY     91   LAYER   1   ROW     7   COL     1   RATE     505.208    
 BOUNDARY     92   LAYER   1   ROW     7   COL     2   RATE     505.208    
 BOUNDARY     93   LAYER   1   ROW     7   COL     3   RATE     505.208    
 BOUNDARY     94   LAYER   1   ROW     7   COL     4   RATE     505.208    
 BOUNDARY     95   LAYER   1   ROW     7   COL     5   RATE     505.208    
 BOUNDARY     96   LAYER   1   ROW     7   COL     6   RATE     505.208    
 BOUNDARY     97   LAYER   1   ROW     7   COL     7   RATE     505.208    
 BOUNDARY     98   LAYER   1   ROW     7   COL     8   RATE     505.208    
 BOUNDARY     99   LAYER   1   ROW     7   COL     9   RATE     505.208    
 BOUNDARY    100   LAYER   1   ROW     7   COL    10   RATE     505.208    
 BOUNDARY    101   LAYER   1   ROW     7   COL    11   RATE     505.208    
 BOUNDARY    102   LAYER   1   ROW     7   COL    12   RATE     505.208    
 BOUNDARY    103   LAYER   1   ROW     7   COL    13   RATE     505.208    
 BOUNDARY    104   LAYER   1   ROW     7   COL    14   RATE     505.208    
 BOUNDARY    105   LAYER   1   ROW     7   COL    15   RATE     505.208    
 BOUNDARY    106   LAYER   1   ROW     8   COL     1   RATE     505.208    
 BOUNDARY    107   LAYER   1   ROW     8   COL     2   RATE     505.208    
 BOUNDARY    108   LAYER   1   ROW     8   COL     3   RATE     505.208    
 BOUNDARY    109   LAYER   1   ROW     8   COL     4   RATE     505.208    
 BOUNDARY    110   LAYER   1   ROW     8   COL     5   RATE     505.208    
 BOUNDARY    111   LAYER   1   ROW     8   COL     6   RATE     505.208    
 BOUNDARY    112   LAYER   1   ROW     8   COL     7   RATE     505.208    
 BOUNDARY    113   LAYER   1   ROW     8   COL     8   RATE     505.208    
 BOUNDARY    114   LAYER   1   ROW     8   COL     9   RATE     505.208    
 BOUNDARY    115   LAYER   1   ROW     8   COL    10   RATE     505.208    
 BOUNDARY    116   LAYER   1   ROW     8   COL    11   RATE     505.208    
 BOUNDARY    117   LAYER   1   ROW     8   COL    12   RATE     505.208    
 BOUNDARY    118   LAYER   1   ROW     8   COL    13   RATE     505.208    
 BOUNDARY    119   LAYER   1   ROW     8   COL    14   RATE     505.208    
 BOUNDARY    120   LAYER   1   ROW     8   COL    15   RATE     505.208    
 BOUNDARY    121   LAYER   1   ROW     9   COL     1   RATE     505.208    
 BOUNDARY    122   LAYER   1   ROW     9   COL     2   RATE     505.208    
 BOUNDARY    123   LAYER   1   ROW     9   COL     3   RATE     505.208    
 BOUNDARY    124   LAYER   1   ROW     9   COL     4   RATE     505.208    
 BOUNDARY    125   LAYER   1   ROW     9   COL     5   RATE     505.208    
 BOUNDARY    126   LAYER   1   ROW     9   COL     6   RATE     505.208    
 BOUNDARY    127   LAYER   1   ROW     9   COL     7   RATE     505.208    
 BOUNDARY    128   LAYER   1   ROW     9   COL     8   RATE     505.208    
 BOUNDARY    129   LAYER   1   ROW     9   COL     9   RATE     505.208    
 BOUNDARY    130   LAYER   1   ROW     9   COL    10   RATE     505.208    
 BOUNDARY    131   LAYER   1   ROW     9   COL    11   RATE     505.208    
 BOUNDARY    132   LAYER   1   ROW     9   COL    12   RATE     505.208    
 BOUNDARY    133   LAYER   1   ROW     9   COL    13   RATE     505.208    
 BOUNDARY    134   LAYER   1   ROW     9   COL    14   RATE     505.208    
 BOUNDARY    135   LAYER   1   ROW     9   COL    15   RATE     505.208    
 BOUNDARY    136   LAYER   1   ROW    10   COL     1   RATE     505.208    
 BOUNDARY    137   LAYER   1   ROW    10   COL     2   RATE     505.208    
 BOUNDARY    138   LAYER   1   ROW    10   COL     3   RATE     505.208    
 BOUNDARY    139   LAYER   1   ROW    10   COL     4   RATE     505.208    
 BOUNDARY    140   LAYER   1   ROW    10   COL     5   RATE     505.208    
 BOUNDARY    141   LAYER   1   ROW    10   COL     6   RATE     505.208    
 BOUNDARY    142   LAYER   1   ROW    10   COL     7   RATE     505.208    
 BOUNDARY    143   LAYER   1   ROW    10   COL     8   RATE     505.208    
 BOUNDARY    144   LAYER   1   ROW    10   COL     9   RATE     505.208    
 BOUNDARY    145   LAYER   1   ROW    10   COL    10   RATE     505.208    
 BOUNDARY    146   LAYER   1   ROW    10   COL    11   RATE     505.208    
 BOUNDARY    147   LAYER   1   ROW    10   COL    12   RATE     505.208    
 BOUNDARY    148   LAYER   1   ROW    10   COL    13   RATE     505.208    
 BOUNDARY    149   LAYER   1   ROW    10   COL    14   RATE     505.208    
 BOUNDARY    150   LAYER   1   ROW    10   COL    15   RATE     505.208    
 UBDSV4 SAVING ET SEGS          ON UNIT   1016 AT TIME STEP      2, STRESS PERIOD      2

 ET SEGS            PERIOD  2   STEP  2
 BOUNDARY      1   LAYER   1   ROW     1   COL     1   RATE    -2.06529    
 BOUNDARY      2   LAYER   1   ROW     1   COL     2   RATE    -8.91791    
 BOUNDARY      3   LAYER   1   ROW     1   COL     3   RATE    -47.6504    
 BOUNDARY      4   LAYER   1   ROW     1   COL     4   RATE   -100.0000    
 BOUNDARY      5   LAYER   1   ROW     1   COL     5   RATE   -100.0000    
 BOUNDARY      6   LAYER   1   ROW     1   COL     6   RATE   -100.0000    
 BOUNDARY      7   LAYER   1   ROW     1   COL     7   RATE   -100.0000    
 BOUNDARY      8   LAYER   1   ROW     1   COL     8   RATE   -100.0000    
 BOUNDARY      9   LAYER   1   ROW     1   COL     9   RATE   -100.0000    
 BOUNDARY     10   LAYER   1   ROW     1   COL    10   RATE   -100.0000    
 BOUNDARY     11   LAYER   1   ROW     1   COL    11   RATE   -100.0000    
 BOUNDARY     12   LAYER   1   ROW     1   COL    12   RATE    -16.4970    
 BOUNDARY     13   LAYER   1   ROW     1   COL    13   RATE     0.00000    
 BOUNDARY     14   LAYER   1   ROW     1   COL    14   RATE     0.00000    
 BOUNDARY     15   LAYER   1   ROW     1   COL    15   RATE     0.00000    
 BOUNDARY     16   LAYER   1   ROW     2   COL     1   RATE     0.00000    
 BOUNDARY     17   LAYER   1   ROW     2   COL     2   RATE    -4.40276    
 BOUNDARY     18   LAYER   1   ROW     2   COL     3   RATE    -27.9908    
 BOUNDARY     19   LAYER   1   ROW     2   COL     4   RATE   -100.0000    
 BOUNDARY     20   LAYER   1   ROW     2   COL     5   RATE   -100.0000    
 BOUNDARY     21   LAYER   1   ROW     2   COL     6   RATE   -100.0000    
 BOUNDARY     22   LAYER   1   ROW     2   COL     7   RATE   -100.0000    
 BOUNDARY     23   LAYER   1   ROW     2   COL     8   RATE   -100.0000    
 BOUNDARY     24   LAYER   1   ROW     2   COL     9   RATE   -100.0000    
 BOUNDARY     25   LAYER   1   ROW     2   COL    10   RATE   -100.0000    
 BOUNDARY     26   LAYER   1   ROW     2   COL    11   RATE   -100.0000    
 BOUNDARY     27   LAYER   1   ROW     2   COL    12   RATE    -18.2368    
 BOUNDARY     28   LAYER   1   ROW     2   COL    13   RATE     0.00000    
 BOUNDARY     29   LAYER   1   ROW     2   COL    14   RATE     0.00000    
 BOUNDARY     30   LAYER   1   ROW     2   COL    15   RATE     0.00000    
 BOUNDARY     31   LAYER   1   ROW     3   COL     1   RATE     0.00000    
 BOUNDARY     32   LAYER   1   ROW     3   COL     2   RATE     0.00000    
 BOUNDARY     33   LAYER   1   ROW     3   COL     3   RATE    -22.0020    
 BOUNDARY     34   LAYER   1   ROW     3   COL     4   RATE   -100.0000    
 BOUNDARY     35   LAYER   1   ROW     3   COL     5   RATE   -100.0000    
 BOUNDARY     36   LAYER   1   ROW     3   COL     6   RATE   -100.0000    
 BOUNDARY     37   LAYER   1   ROW     3   COL     7   RATE   -100.0000    
 BOUNDARY     38   LAYER   1   ROW     3   COL     8   RATE   -100.0000    
 BOUNDARY     39   LAYER   1   ROW     3   COL     9   RATE   -100.0000    
 BOUNDARY     40   LAYER   1   ROW     3   COL    10   RATE   -100.0000    
 BOUNDARY     41   LAYER   1   ROW     3   COL    11   RATE   -100.0000    
 BOUNDARY     42   LAYER   1   ROW     3   COL    12   RATE    -21.1711    
 BOUNDARY     43   LAYER   1   ROW     3   COL    13   RATE    -1.78442    
 BOUNDARY     44   LAYER   1   ROW     3   COL    14   RATE     0.00000    
 BOUNDARY     45   LAYER   1   ROW     3   COL    15   RATE     0.00000    
 BOUNDARY     46   LAYER   1   ROW     4   COL     1   RATE     0.00000    
 BOUNDARY     47   LAYER   1   ROW     4   COL     2   RATE    -2.88884    
 BOUNDARY     48   LAYER   1   ROW     4   COL     3   RATE    -25.8670    
 BOUNDARY     49   LAYER   1   ROW     4   COL     4   RATE   -100.0000    
 BOUNDARY     50   LAYER   1   ROW     4   COL     5   RATE   -100.0000    
 BOUNDARY     51   LAYER   1   ROW     4   COL     6   RATE   -100.0000    
 BOUNDARY     52   LAYER   1   ROW     4   COL     7   RATE   -100.0000    
 BOUNDARY     53   LAYER   1   ROW     4   COL     8   RATE   -100.0000    
 BOUNDARY     54   LAYER   1   ROW     4   COL     9   RATE   -100.0000    
 BOUNDARY     55   LAYER   1   ROW     4   COL    10   RATE   -100.0000    
 BOUNDARY     56   LAYER   1   ROW     4   COL    11   RATE   -100.0000    
 BOUNDARY     57   LAYER   1   ROW     4   COL    12   RATE    -23.9722    
 BOUNDARY     58   LAYER   1   ROW     4   COL    13   RATE    -3.25076    
 BOUNDARY     59   LAYER   1   ROW     4   COL    14   RATE     0.00000    
 BOUNDARY     60   LAYER   1   ROW     4   COL    15   RATE     0.00000    
 BOUNDARY     61   LAYER   1   ROW     5   COL     1   RATE     0.00000    
 BOUNDARY     62   LAYER   1   ROW     5   COL     2   RATE    -5.86210    
 BOUNDARY     63   LAYER   1   ROW     5   COL     3   RATE    -29.8544    
 BOUNDARY     64   LAYER   1   ROW     5   COL     4   RATE   -100.0000    
 BOUNDARY     65   LAYER   1   ROW     5   COL     5   RATE   -100.0000    
 BOUNDARY     66   LAYER   1   ROW     5   COL     6   RATE   -100.0000    
 BOUNDARY     67   LAYER   1   ROW     5   COL     7   RATE   -100.0000    
 BOUNDARY     68   LAYER   1   ROW     5   COL     8   RATE   -100.0000    
 BOUNDARY     69   LAYER   1   ROW     5   COL     9   RATE   -100.0000    
 BOUNDARY     70   LAYER   1   ROW     5   COL    10   RATE   -100.0000    
 BOUNDARY     71   LAYER   1   ROW     5   COL    11   RATE   -100.0000    
 BOUNDARY     72   LAYER   1   ROW     5   COL    12   RATE    -25.9147    
 BOUNDARY     73   LAYER   1   ROW     5   COL    13   RATE    -4.17117    
 BOUNDARY     74   LAYER   1   ROW     5   COL    14   RATE     0.00000    
 BOUNDARY     75   LAYER   1   ROW     5   COL    15   RATE     0.00000    
 BOUNDARY     76   LAYER   1   ROW     6   COL     1   RATE     0.00000    
 BOUNDARY     77   LAYER   1   ROW     6   COL     2   RATE    -4.43414    
 BOUNDARY     78   LAYER   1   ROW     6   COL     3   RATE    -33.1069    
 BOUNDARY     79   LAYER   1   ROW     6   COL     4   RATE   -100.0000    
 BOUNDARY     80   LAYER   1   ROW     6   COL     5   RATE   -100.0000    
 BOUNDARY     81   LAYER   1   ROW     6   COL     6   RATE   -100.0000    
 BOUNDARY     82   LAYER   1   ROW     6   COL     7   RATE   -100.0000    
 BOUNDARY     83   LAYER   1   ROW     6   COL     8   RATE   -100.0000    
 BOUNDARY     84   LAYER   1   ROW     6   COL     9   RATE   -100.0000    
 BOUNDARY     85   LAYER   1   ROW     6   COL    10   RATE   -100.0000    
 BOUNDARY     86   LAYER   1   ROW     6   COL    11   RATE   -100.0000    
 BOUNDARY     87   LAYER   1   ROW     6   COL    12   RATE    -26.5639    
 BOUNDARY     88   LAYER   1   ROW     6   COL    13   RATE    -4.13105    
 BOUNDARY     89   LAYER   1   ROW     6   COL    14   RATE     0.00000    
 BOUNDARY     90   LAYER   1   ROW     6   COL    15   RATE     0.00000    
 BOUNDARY     91   LAYER   1   ROW     7   COL     1   RATE     0.00000    
 BOUNDARY     92   LAYER   1   ROW     7   COL     2   RATE   -0.942572    
 BOUNDARY     93   LAYER   1   ROW     7   COL     3   RATE    -39.9939    
 BOUNDARY     94   LAYER   1   ROW     7   COL     4   RATE   -100.0000    
 BOUNDARY     95   LAYER   1   ROW     7   COL     5   RATE   -100.0000    
 BOUNDARY     96   LAYER   1   ROW     7   COL     6   RATE   -100.0000    
 BOUNDARY     97   LAYER   1   ROW     7   COL     7   RATE   -100.0000    
 BOUNDARY     98   LAYER   1   ROW     7   COL     8   RATE   -100.0000    
 BOUNDARY     99   LAYER   1   ROW     7   COL     9   RATE   -100.0000    
 BOUNDARY    100   LAYER   1   ROW     7   COL    10   RATE   -100.0000    
 BOUNDARY    101   LAYER   1   ROW     7   COL    11   RATE   -100.0000    
 BOUNDARY    102   LAYER   1   ROW     7   COL    12   RATE    -26.3984    
 BOUNDARY    103   LAYER   1   ROW     7   COL    13   RATE    -3.39208    
 BOUNDARY    104   LAYER   1   ROW     7   COL    14   RATE     0.00000    
 BOUNDARY    105   LAYER   1   ROW     7   COL    15   RATE     0.00000    
 BOUNDARY    106   LAYER   1   ROW     8   COL     1   RATE     0.00000    
 BOUNDARY    107   LAYER   1   ROW     8   COL     2   RATE    -10.9931    
 BOUNDARY    108   LAYER   1   ROW     8   COL     3   RATE   -100.0000    
 BOUNDARY    109   LAYER   1   ROW     8   COL     4   RATE   -100.0000    
 BOUNDARY    110   LAYER   1   ROW     8   COL     5   RATE   -100.0000    
 BOUNDARY    111   LAYER   1   ROW     8   COL     6   RATE   -100.0000    
 BOUNDARY    112   LAYER   1   ROW     8   COL     7   RATE   -100.0000    
 BOUNDARY    113   LAYER   1   ROW     8   COL     8   RATE   -100.0000    
 BOUNDARY    114   LAYER   1   ROW     8   COL     9   RATE   -100.0000    
 BOUNDARY    115   LAYER   1   ROW     8   COL    10   RATE   -100.0000    
 BOUNDARY    116   LAYER   1   ROW     8   COL    11   RATE   -100.0000    
 BOUNDARY    117   LAYER   1   ROW     8   COL    12   RATE    -26.7834    
 BOUNDARY    118   LAYER   1   ROW     8   COL    13   RATE    -3.39084    
 BOUNDARY    119   LAYER   1   ROW     8   COL    14   RATE     0.00000    
 BOUNDARY    120   LAYER   1   ROW     8   COL    15   RATE     0.00000    
 BOUNDARY    121   LAYER   1   ROW     9   COL     1   RATE    -18.5712    
 BOUNDARY    122   LAYER   1   ROW     9   COL     2   RATE    -59.0785    
 BOUNDARY    123   LAYER   1   ROW     9   COL     3   RATE   -100.0000    
 BOUNDARY    124   LAYER   1   ROW     9   COL     4   RATE   -100.0000    
 BOUNDARY    125   LAYER   1   ROW     9   COL     5   RATE   -100.0000    
 BOUNDARY    126   LAYER   1   ROW     9   COL     6   RATE   -100.0000    
 BOUNDARY    127   LAYER   1   ROW     9   COL     7   RATE   -100.0000    
 BOUNDARY    128   LAYER   1   ROW     9   COL     8   RATE   -100.0000    
 BOUNDARY    129   LAYER   1   ROW     9   COL     9   RATE   -100.0000    
 BOUNDARY    130   LAYER   1   ROW     9   COL    10   RATE   -100.0000    
 BOUNDARY    131   LAYER   1   ROW     9   COL    11   RATE   -100.0000    
 BOUNDARY    132   LAYER   1   ROW     9   COL    12   RATE    -27.8771    
 BOUNDARY    133   LAYER   1   ROW     9   COL    13   RATE    -4.20171    
 BOUNDARY    134   LAYER   1   ROW     9   COL    14   RATE     0.00000    
 BOUNDARY    135   LAYER   1   ROW     9   COL    15   RATE     0.00000    
 BOUNDARY    136   LAYER   1   ROW    10   COL     1   RATE    -67.2919    
 BOUNDARY    137   LAYER   1   ROW    10   COL     2   RATE   -100.0000    
 BOUNDARY    138   LAYER   1   ROW    10   COL     3   RATE   -100.0000    
 BOUNDARY    139   LAYER   1   ROW    10   COL     4   RATE   -100.0000    
 BOUNDARY    140   LAYER   1   ROW    10   COL     5   RATE   -100.0000    
 BOUNDARY    141   LAYER   1   ROW    10   COL     6   RATE   -100.0000    
 BOUNDARY    142   LAYER   1   ROW    10   COL     7   RATE   -100.0000    
 BOUNDARY    143   LAYER   1   ROW    10   COL     8   RATE   -100.0000    
 BOUNDARY    144   LAYER   1   ROW    10   COL     9   RATE   -100.0000    
 BOUNDARY    145   LAYER   1   ROW    10   COL    10   RATE   -100.0000    
 BOUNDARY    146   LAYER   1   ROW    10   COL    11   RATE   -100.0000    
 BOUNDARY    147   LAYER   1   ROW    10   COL    12   RATE    -28.6709    
 BOUNDARY    148   LAYER   1   ROW    10   COL    13   RATE    -4.72641    
 BOUNDARY    149   LAYER   1   ROW    10   COL    14   RATE     0.00000    
 BOUNDARY    150   LAYER   1   ROW    10   COL    15   RATE     0.00000    

 HEAD WILL BE SAVED ON UNIT 1017 AT END OF TIME STEP    2, STRESS PERIOD    2
WEL   no.    1 value from time series:   0.0000     for time:  3.000     to  4.000    
WEL   no.    2 value from time series:   0.0000     for time:  3.000     to  4.000    
RIV   no.    1 value from time series:   104.50     for time:  3.000     to  4.000    
RIV   no.    2 value from time series:   104.50     for time:  3.000     to  4.000    
RIV   no.    3 value from time series:   112.90     for time:  3.000     to  4.000    
RIV   no.    4 value from time series:   112.90     for time:  3.000     to  4.000    
RIV   no.    5 value from time series:   116.20     for time:  3.000     to  4.000    
RIV   no.    6 value from time series:   116.20     for time:  3.000     to  4.000    
RIV   no.    7 value from time series:   106.85     for time:  3.000     to  4.000    
RIV   no.    8 value from time series:   106.85     for time:  3.000     to  4.000    
RIV   no.    9 value from time series:   114.80     for time:  3.000     to  4.000    
RIV   no.   10 value from time series:   114.80     for time:  3.000     to  4.000    
WEL   no.    1 value from time series:   0.0000     for time:  3.000     to  4.000    
WEL   no.    2 value from time series:   0.0000     for time:  3.000     to  4.000    
RIV   no.    1 value from time series:   104.50     for time:  3.000     to  4.000    
RIV   no.    2 value from time series:   104.50     for time:  3.000     to  4.000    
RIV   no.    3 value from time series:   112.90     for time:  3.000     to  4.000    
RIV   no.    4 value from time series:   112.90     for time:  3.000     to  4.000    
RIV   no.    5 value from time series:   116.20     for time:  3.000     to  4.000    
RIV   no.    6 value from time series:   116.20     for time:  3.000     to  4.000    
RIV   no.    7 value from time series:   106.85     for time:  3.000     to  4.000    
RIV   no.    8 value from time series:   106.85     for time:  3.000     to  4.000    
RIV   no.    9 value from time series:   114.80     for time:  3.000     to  4.000    
RIV   no.   10 value from time series:   114.80     for time:  3.000     to  4.000    

 OUTPUT CONTROL FOR STRESS PERIOD    2   TIME STEP    3
    SAVE BUDGET
    SAVE HEAD
    SAVE HEAD FOR ALL LAYERS
 UBDSV1 SAVING          STORAGE ON UNIT   1016 AT TIME STEP      3, STRESS PERIOD      2
 UBDSV1 SAVING FLOW RIGHT FACE  ON UNIT   1016 AT TIME STEP      3, STRESS PERIOD      2
 UBDSV1 SAVING FLOW FRONT FACE  ON UNIT   1016 AT TIME STEP      3, STRESS PERIOD      2
 UBDSV1 SAVING FLOW LOWER FACE  ON UNIT   1016 AT TIME STEP      3, STRESS PERIOD      2
 UBDSV4 SAVING WELLS NEAR RIVER ON UNIT   1016 AT TIME STEP      3, STRESS PERIOD      2

 WELLS NEAR RIVER   PERIOD  2   STEP  3
 BOUNDARY      1   LAYER   2   ROW     3   COL     4   RATE     0.00000      WELL_1
 BOUNDARY      2   LAYER   2   ROW     8   COL     4   RATE     0.00000      WELL_2
 BOUNDARY      3   LAYER   2   ROW     4   COL     6   RATE   -10.00000    
 BOUNDARY      4   LAYER   2   ROW     5   COL     8   RATE    -20.0000    
 BOUNDARY      5   LAYER   2   ROW     2   COL     9   RATE    -40.0000    
 UBDSV4 SAVING RIVER            ON UNIT   1016 AT TIME STEP      3, STRESS PERIOD      2

 RIVER              PERIOD  2   STEP  3
 BOUNDARY      1   LAYER   1   ROW     1   COL    15   RATE    -1435.38    
 BOUNDARY      2   LAYER   1   ROW     2   COL    15   RATE    -2531.53      RIV2
 BOUNDARY      3   LAYER   1   ROW     3   COL    15   RATE    -610.127      RIV3
 BOUNDARY      4   LAYER   1   ROW     4   COL    15   RATE    -2096.87    
 BOUNDARY      5   LAYER   1   ROW     5   COL    15   RATE    -1306.10    
 BOUNDARY      6   LAYER   1   ROW     6   COL    15   RATE    -682.156    
 BOUNDARY      7   LAYER   1   ROW     7   COL    15   RATE    -3399.44      RIVX
 BOUNDARY      8   LAYER   1   ROW     8   COL    15   RATE    -3168.00      RIVX
 BOUNDARY      9   LAYER   1   ROW     9   COL    15   RATE    -505.382      RIVX
 BOUNDARY     10   LAYER   1   ROW    10   COL    15   RATE    -1354.87    

 GHB LAKES          PERIOD  2   STEP  3
 BOUNDARY      1   LAYER   1   ROW     3   COL     1   RATE    -14419.8    
 BOUNDARY      2   LAYER   1   ROW     7   COL     1   RATE    -1825.10      GHB2_UPPER
 BOUNDARY      3   LAYER   1   ROW     7   COL     1   RATE    -13203.5      GHB2_LOWER
 UBDSV4 SAVING RECHARGE         ON UNIT   1016 AT TIME STEP      3, STRESS PERIOD      2

 RECHARGE           PERIOD  2   STEP  3
 BOUNDARY      1   LAYER   1   ROW     1   COL     1   RATE     507.292    
 BOUNDARY      2   LAYER   1   ROW     1   COL     2   RATE     507.292    
 BOUNDARY      3   LAYER   1   ROW     1   COL     3   RATE     507.292    
 BOUNDARY      4   LAYER   1   ROW     1   COL     4   RATE     507.292    
 BOUNDARY      5   LAYER   1   ROW     1   COL     5   RATE     507.292    
 BOUNDARY      6   LAYER   1   ROW     1   COL     6   RATE     507.292    
 BOUNDARY      7   LAYER   1   ROW     1   COL     7   RATE     507.292    
 BOUNDARY      8   LAYER   1   ROW     1   COL     8   RATE     507.292    
 BOUNDARY      9   LAYER   1   ROW     1   COL     9   RATE     507.292    
 BOUNDARY     10   LAYER   1   ROW     1   COL    10   RATE     507.292    
 BOUNDARY     11   LAYER   1   ROW     1   COL    11   RATE     507.292    
 BOUNDARY     12   LAYER   1   ROW     1   COL    12   RATE     507.292    
 BOUNDARY     13   LAYER   1   ROW     1   COL    13   RATE     507.292    
 BOUNDARY     14   LAYER   1   ROW     1   COL    14   RATE     507.292    
 BOUNDARY     15   LAYER   1   ROW     1   COL    15   RATE     507.292    
 BOUNDARY     16   LAYER   1   ROW     2   COL     1   RATE     507.292    
 BOUNDARY     17   LAYER   1   ROW     2   COL     2   RATE     507.292    
 BOUNDARY     18   LAYER   1   ROW     2   COL     3   RATE     507.292    
 BOUNDARY     19   LAYER   1   ROW     2   COL     4   RATE     507.292    
 BOUNDARY     20   LAYER   1   ROW     2   COL     5   RATE     507.292    
 BOUNDARY     21   LAYER   1   ROW     2   COL     6   RATE     507.292    
 BOUNDARY     22   LAYER   1   ROW     2   COL     7   RATE     507.292    
 BOUNDARY     23   LAYER   1   ROW     2   COL     8   RATE     507.292    
 BOUNDARY     24   LAYER   1   ROW     2   COL     9   RATE     507.292    
 BOUNDARY     25   LAYER   1   ROW     2   COL    10   RATE     507.292    
 BOUNDARY     26   LAYER   1   ROW     2   COL    11   RATE     507.292    
 BOUNDARY     27   LAYER   1   ROW     2   COL    12   RATE     507.292    
 BOUNDARY     28   LAYER   1   ROW     2   COL    13   RATE     507.292    
 BOUNDARY     29   LAYER   1   ROW     2   COL    14   RATE     507.292    
 BOUNDARY     30   LAYER   1   ROW     2   COL    15   RATE     507.292    
 BOUNDARY     31   LAYER   1   ROW     3   COL     1   RATE     507.292    
 BOUNDARY     32   LAYER   1   ROW     3   COL     2   RATE     507.292    
 BOUNDARY     33   LAYER   1   ROW     3   COL     3   RATE     507.292    
 BOUNDARY     34   LAYER   1   ROW     3   COL     4   RATE     507.292    
 BOUNDARY     35   LAYER   1   ROW     3   COL     5   RATE     507.292    
 BOUNDARY     36   LAYER   1   ROW     3   COL     6   RATE     507.292    
 BOUNDARY     37   LAYER   1   ROW     3   COL     7   RATE     507.292    
 BOUNDARY     38   LAYER   1   ROW     3   COL     8   RATE     507.292    
 BOUNDARY     39   LAYER   1   ROW     3   COL     9   RATE     507.292    
 BOUNDARY     40   LAYER   1   ROW     3   COL    10   RATE     507.292    
 BOUNDARY     41   LAYER   1   ROW     3   COL    11   RATE     507.292    
 BOUNDARY     42   LAYER   1   ROW     3   COL    12   RATE     507.292    
 BOUNDARY     43   LAYER   1   ROW     3   COL    13   RATE     507.292    
 BOUNDARY     44   LAYER   1   ROW     3   COL    14   RATE     507.292    
 BOUNDARY     45   LAYER   1   ROW     3   COL    15   RATE     507.292    
 BOUNDARY     46   LAYER   1   ROW     4   COL     1   RATE     507.292    
 BOUNDARY     47   LAYER   1   ROW     4   COL     2   RATE     507.292    
 BOUNDARY     48   LAYER   1   ROW     4   COL     3   RATE     507.292    
 BOUNDARY     49   LAYER   1   ROW     4   COL     4   RATE     507.292    
 BOUNDARY     50   LAYER   1   ROW     4   COL     5   RATE     507.292    
 BOUNDARY     51   LAYER   1   ROW     4   COL     6   RATE     507.292    
 BOUNDARY     52   LAYER   1   ROW     4   COL     7   RATE     507.292    
 BOUNDARY     53   LAYER   1   ROW     4   COL     8   RATE     507.292    
 BOUNDARY     54   LAYER   1   ROW     4   COL     9   RATE     507.292    
 BOUNDARY     55   LAYER   1   ROW     4   COL    10   RATE     507.292    
 BOUNDARY     56   LAYER   1   ROW     4   COL    11   RATE     507.292    
 BOUNDARY     57   LAYER   1   ROW     4   COL    12   RATE     507.292    
 BOUNDARY     58   LAYER   1   ROW     4   COL    13   RATE     507.292    
 BOUNDARY     59   LAYER   1   ROW     4   COL    14   RATE     507.292    
 BOUNDARY     60   LAYER   1   ROW     4   COL    15   RATE     507.292    
 BOUNDARY     61   LAYER   1   ROW     5   COL     1   RATE     507.292    
 BOUNDARY     62   LAYER   1   ROW     5   COL     2   RATE     507.292    
 BOUNDARY     63   LAYER   1   ROW     5   COL     3   RATE     507.292    
 BOUNDARY     64   LAYER   1   ROW     5   COL     4   RATE     507.292    
 BOUNDARY     65   LAYER   1   ROW     5   COL     5   RATE     507.292    
 BOUNDARY     66   LAYER   1   ROW     5   COL     6   RATE     507.292    
 BOUNDARY     67   LAYER   1   ROW     5   COL     7   RATE     507.292    
 BOUNDARY     68   LAYER   1   ROW     5   COL     8   RATE     507.292    
 BOUNDARY     69   LAYER   1   ROW     5   COL     9   RATE     507.292    
 BOUNDARY     70   LAYER   1   ROW     5   COL    10   RATE     507.292    
 BOUNDARY     71   LAYER   1   ROW     5   COL    11   RATE     507.292    
 BOUNDARY     72   LAYER   1   ROW     5   COL    12   RATE     507.292    
 BOUNDARY     73   LAYER   1   ROW     5   COL    13   RATE     507.292    
 BOUNDARY     74   LAYER   1   ROW     5   COL    14   RATE     507.292    
 BOUNDARY     75   LAYER   1   ROW     5   COL    15   RATE     507.292    
 BOUNDARY     76   LAYER   1   ROW     6   COL     1   RATE     507.292    
 BOUNDARY     77   LAYER   1   ROW     6   COL     2   RATE     507.292    
 BOUNDARY     78   LAYER   1   ROW     6   COL     3   RATE     507.292    
 BOUNDARY     79   LAYER   1   ROW     6   COL     4   RATE     507.292    
 BOUNDARY     80   LAYER   1   ROW     6   COL     5   RATE     507.292    
 BOUNDARY     81   LAYER   1   ROW     6   COL     6   RATE     507.292    
 BOUNDARY     82   LAYER   1   ROW     6   COL     7   RATE     507.292    
 BOUNDARY     83   LAYER   1   ROW     6   COL     8   RATE     507.292    
 BOUNDARY     84   LAYER   1   ROW     6   COL     9   RATE     507.292    
 BOUNDARY     85   LAYER   1   ROW     6   COL    10   RATE     507.292    
 BOUNDARY     86   LAYER   1   ROW     6   COL    11   RATE     507.292    
 BOUNDARY     87   LAYER   1   ROW     6   COL    12   RATE     507.292    
 BOUNDARY     88   LAYER   1   ROW     6   COL    13   RATE     507.292    
 BOUNDARY     89   LAYER   1   ROW     6   COL    14   RATE     507.292    
 BOUNDARY     90   LAYER   1   ROW     6   COL    15   RATE     507.292    
 BOUNDARY     91   LAYER   1   ROW     7   COL     1   RATE     507.292    
 BOUNDARY     92   LAYER   1   ROW     7   COL     2   RATE     507.292    
 BOUNDARY     93   LAYER   1   ROW     7   COL     3   RATE     507.292    
 BOUNDARY     94   LAYER   1   ROW     7   COL     4   RATE     507.292    
 BOUNDARY     95   LAYER   1   ROW     7   COL     5   RATE     507.292    
 BOUNDARY     96   LAYER   1   ROW     7   COL     6   RATE     507.292    
 BOUNDARY     97   LAYER   1   ROW     7   COL     7   RATE     507.292    
 BOUNDARY     98   LAYER   1   ROW     7   COL     8   RATE     507.292    
 BOUNDARY     99   LAYER   1   ROW     7   COL     9   RATE     507.292    
 BOUNDARY    100   LAYER   1   ROW     7   COL    10   RATE     507.292    
 BOUNDARY    101   LAYER   1   ROW     7   COL    11   RATE     507.292    
 BOUNDARY    102   LAYER   1   ROW     7   COL    12   RATE     507.292    
 BOUNDARY    103   LAYER   1   ROW     7   COL    13   RATE     507.292    
 BOUNDARY    104   LAYER   1   ROW     7   COL    14   RATE     507.292    
 BOUNDARY    105   LAYER   1   ROW     7   COL    15   RATE     507.292    
 BOUNDARY    106   LAYER   1   ROW     8   COL     1   RATE     507.292    
 BOUNDARY    107   LAYER   1   ROW     8   COL     2   RATE     507.292    
 BOUNDARY    108   LAYER   1   ROW     8   COL     3   RATE     507.292    
 BOUNDARY    109   LAYER   1   ROW     8   COL     4   RATE     507.292    
 BOUNDARY    110   LAYER   1   ROW     8   COL     5   RATE     507.292    
 BOUNDARY    111   LAYER   1   ROW     8   COL     6   RATE     507.292    
 BOUNDARY    112   LAYER   1   ROW     8   COL     7   RATE     507.292    
 BOUNDARY    113   LAYER   1   ROW     8   COL     8   RATE     507.292    
 BOUNDARY    114   LAYER   1   ROW     8   COL     9   RATE     507.292    
 BOUNDARY    115   LAYER   1   ROW     8   COL    10   RATE     507.292    
 BOUNDARY    116   LAYER   1   ROW     8   COL    11   RATE     507.292    
 BOUNDARY    117   LAYER   1   ROW     8   COL    12   RATE     507.292    
 BOUNDARY    118   LAYER   1   ROW     8   COL    13   RATE     507.292    
 BOUNDARY    119   LAYER   1   ROW     8   COL    14   RATE     507.292    
 BOUNDARY    120   LAYER   1   ROW     8   COL    15   RATE     507.292    
 BOUNDARY    121   LAYER   1   ROW     9   COL     1   RATE     507.292    
 BOUNDARY    122   LAYER   1   ROW     9   COL     2   RATE     507.292    
 BOUNDARY    123   LAYER   1   ROW     9   COL     3   RATE     507.292    
 BOUNDARY    124   LAYER   1   ROW     9   COL     4   RATE     507.292    
 BOUNDARY    125   LAYER   1   ROW     9   COL     5   RATE     507.292    
 BOUNDARY    126   LAYER   1   ROW     9   COL     6   RATE     507.292    
 BOUNDARY    127   LAYER   1   ROW     9   COL     7   RATE     507.292    
 BOUNDARY    128   LAYER   1   ROW     9   COL     8   RATE     507.292    
 BOUNDARY    129   LAYER   1   ROW     9   COL     9   RATE     507.292    
 BOUNDARY    130   LAYER   1   ROW     9   COL    10   RATE     507.292    
 BOUNDARY    131   LAYER   1   ROW     9   COL    11   RATE     507.292    
 BOUNDARY    132   LAYER   1   ROW     9   COL    12   RATE     507.292    
 BOUNDARY    133   LAYER   1   ROW     9   COL    13   RATE     507.292    
 BOUNDARY    134   LAYER   1   ROW     9   COL    14   RATE     507.292    
 BOUNDARY    135   LAYER   1   ROW     9   COL    15   RATE     507.292    
 BOUNDARY    136   LAYER   1   ROW    10   COL     1   RATE     507.292    
 BOUNDARY    137   LAYER   1   ROW    10   COL     2   RATE     507.292    
 BOUNDARY    138   LAYER   1   ROW    10   COL     3   RATE     507.292    
 BOUNDARY    139   LAYER   1   ROW    10   COL     4   RATE     507.292    
 BOUNDARY    140   LAYER   1   ROW    10   COL     5   RATE     507.292    
 BOUNDARY    141   LAYER   1   ROW    10   COL     6   RATE     507.292    
 BOUNDARY    142   LAYER   1   ROW    10   COL     7   RATE     507.292    
 BOUNDARY    143   LAYER   1   ROW    10   COL     8   RATE     507.292    
 BOUNDARY    144   LAYER   1   ROW    10   COL     9   RATE     507.292    
 BOUNDARY    145   LAYER   1   ROW    10   COL    10   RATE     507.292    
 BOUNDARY    146   LAYER   1   ROW    10   COL    11   RATE     507.292    
 BOUNDARY    147   LAYER   1   ROW    10   COL    12   RATE     507.292    
 BOUNDARY    148   LAYER   1   ROW    10   COL    13   RATE     507.292    
 BOUNDARY    149   LAYER   1   ROW    10   COL    14   RATE     507.292    
 BOUNDARY    150   LAYER   1   ROW    10   COL    15   RATE     507.292    
 UBDSV4 SAVING ET SEGS          ON UNIT   1016 AT TIME STEP      3, STRESS PERIOD      2

 ET SEGS            PERIOD  2   STEP  3
 BOUNDARY      1   LAYER   1   ROW     1   COL     1   RATE    -2.06578    
 BOUNDARY      2   LAYER   1   ROW     1   COL     2   RATE    -8.91841    
 BOUNDARY      3   LAYER   1   ROW     1   COL     3   RATE    -47.6591    
 BOUNDARY      4   LAYER   1   ROW     1   COL     4   RATE   -100.0000    
 BOUNDARY      5   LAYER   1   ROW     1   COL     5   RATE   -100.0000    
 BOUNDARY      6   LAYER   1   ROW     1   COL     6   RATE   -100.0000    
 BOUNDARY      7   LAYER   1   ROW     1   COL     7   RATE   -100.0000    
 BOUNDARY      8   LAYER   1   ROW     1   COL     8   RATE   -100.0000    
 BOUNDARY      9   LAYER   1   ROW     1   COL     9   RATE   -100.0000    
 BOUNDARY     10   LAYER   1   ROW     1   COL    10   RATE   -100.0000    
 BOUNDARY     11   LAYER   1   ROW     1   COL    11   RATE   -100.0000    
 BOUNDARY     12   LAYER   1   ROW     1   COL    12   RATE    -16.4987    
 BOUNDARY     13   LAYER   1   ROW     1   COL    13   RATE     0.00000    
 BOUNDARY     14   LAYER   1   ROW     1   COL    14   RATE     0.00000    
 BOUNDARY     15   LAYER   1   ROW     1   COL    15   RATE     0.00000    
 BOUNDARY     16   LAYER   1   ROW     2   COL     1   RATE     0.00000    
 BOUNDARY     17   LAYER   1   ROW     2   COL     2   RATE    -4.40326    
 BOUNDARY     18   LAYER   1   ROW     2   COL     3   RATE    -27.9924    
 BOUNDARY     19   LAYER   1   ROW     2   COL     4   RATE   -100.0000    
 BOUNDARY     20   LAYER   1   ROW     2   COL     5   RATE   -100.0000    
 BOUNDARY     21   LAYER   1   ROW     2   COL     6   RATE   -100.0000    
 BOUNDARY     22   LAYER   1   ROW     2   COL     7   RATE   -100.0000    
 BOUNDARY     23   LAYER   1   ROW     2   COL     8   RATE   -100.0000    
 BOUNDARY     24   LAYER   1   ROW     2   COL     9   RATE   -100.0000    
 BOUNDARY     25   LAYER   1   ROW     2   COL    10   RATE   -100.0000    
 BOUNDARY     26   LAYER   1   ROW     2   COL    11   RATE   -100.0000    
 BOUNDARY     27   LAYER   1   ROW     2   COL    12   RATE    -18.2384    
 BOUNDARY     28   LAYER   1   ROW     2   COL    13   RATE     0.00000    
 BOUNDARY     29   LAYER   1   ROW     2   COL    14   RATE     0.00000    
 BOUNDARY     30   LAYER   1   ROW     2   COL    15   RATE     0.00000    
 BOUNDARY     31   LAYER   1   ROW     3   COL     1   RATE     0.00000    
 BOUNDARY     32   LAYER   1   ROW     3   COL     2   RATE     0.00000    
 BOUNDARY     33   LAYER   1   ROW     3   COL     3   RATE    -22.0037    
 BOUNDARY     34   LAYER   1   ROW     3   COL     4   RATE   -100.0000    
 BOUNDARY     35   LAYER   1   ROW     3   COL     5   RATE   -100.0000    
 BOUNDARY     36   LAYER   1   ROW     3   COL     6   RATE   -100.0000    
 BOUNDARY     37   LAYER   1   ROW     3   COL     7   RATE   -100.0000    
 BOUNDARY     38   LAYER   1   ROW     3   COL     8   RATE   -100.0000    
 BOUNDARY     39   LAYER   1   ROW     3   COL     9   RATE   -100.0000    
 BOUNDARY     40   LAYER   1   ROW     3   COL    10   RATE   -100.0000    
 BOUNDARY     41   LAYER   1   ROW     3   COL    11   RATE   -100.0000    
 BOUNDARY     42   LAYER   1   ROW     3   COL    12   RATE    -21.1727    
 BOUNDARY     43   LAYER   1   ROW     3   COL    13   RATE    -1.78496    
 BOUNDARY     44   LAYER   1   ROW     3   COL    14   RATE     0.00000    
 BOUNDARY     45   LAYER   1   ROW     3   COL    15   RATE     0.00000    
 BOUNDARY     46   LAYER   1   ROW     4   COL     1   RATE     0.00000    
 BOUNDARY     47   LAYER   1   ROW     4   COL     2   RATE    -2.88933    
 BOUNDARY     48   LAYER   1   ROW     4   COL     3   RATE    -25.8686    
 BOUNDARY     49   LAYER   1   ROW     4   COL     4   RATE   -100.0000    
 BOUNDARY     50   LAYER   1   ROW     4   COL     5   RATE   -100.0000    
 BOUNDARY     51   LAYER   1   ROW     4   COL     6   RATE   -100.0000    
 BOUNDARY     52   LAYER   1   ROW     4   COL     7   RATE   -100.0000    
 BOUNDARY     53   LAYER   1   ROW     4   COL     8   RATE   -100.0000    
 BOUNDARY     54   LAYER   1   ROW     4   COL     9   RATE   -100.0000    
 BOUNDARY     55   LAYER   1   ROW     4   COL    10   RATE   -100.0000    
 BOUNDARY     56   LAYER   1   ROW     4   COL    11   RATE   -100.0000    
 BOUNDARY     57   LAYER   1   ROW     4   COL    12   RATE    -23.9739    
 BOUNDARY     58   LAYER   1   ROW     4   COL    13   RATE    -3.25129    
 BOUNDARY     59   LAYER   1   ROW     4   COL    14   RATE     0.00000    
 BOUNDARY     60   LAYER   1   ROW     4   COL    15   RATE     0.00000    
 BOUNDARY     61   LAYER   1   ROW     5   COL     1   RATE     0.00000    
 BOUNDARY     62   LAYER   1   ROW     5   COL     2   RATE    -5.86260    
 BOUNDARY     63   LAYER   1   ROW     5   COL     3   RATE    -29.8561    
 BOUNDARY     64   LAYER   1   ROW     5   COL     4   RATE   -100.0000    
 BOUNDARY     65   LAYER   1   ROW     5   COL     5   RATE   -100.0000    
 BOUNDARY     66   LAYER   1   ROW     5   COL     6   RATE   -100.0000    
 BOUNDARY     67   LAYER   1   ROW     5   COL     7   RATE   -100.0000    
 BOUNDARY     68   LAYER   1   ROW     5   COL     8   RATE   -100.0000    
 BOUNDARY     69   LAYER   1   ROW     5   COL     9   RATE   -100.0000    
 BOUNDARY     70   LAYER   1   ROW     5   COL    10   RATE   -100.0000    
 BOUNDARY     71   LAYER   1   ROW     5   COL    11   RATE   -100.0000    
 BOUNDARY     72   LAYER   1   ROW     5   COL    12   RATE    -25.9163    
 BOUNDARY     73   LAYER   1   ROW     5   COL    13   RATE    -4.17171    
 BOUNDARY     74   LAYER   1   ROW     5   COL    14   RATE     0.00000    
 BOUNDARY     75   LAYER   1   ROW     5   COL    15   RATE     0.00000    
 BOUNDARY     76   LAYER   1   ROW     6   COL     1   RATE     0.00000    
 BOUNDARY     77   LAYER   1   ROW     6   COL     2   RATE    -4.43463    
 BOUNDARY     78   LAYER   1   ROW     6   COL     3   RATE    -33.1156    
 BOUNDARY     79   LAYER   1   ROW     6   COL     4   RATE   -100.0000    
 BOUNDARY     80   LAYER   1   ROW     6   COL     5   RATE   -100.0000    
 BOUNDARY     81   LAYER   1   ROW     6   COL     6   RATE   -100.0000    
 BOUNDARY     82   LAYER   1   ROW     6   COL     7   RATE   -100.0000    
 BOUNDARY     83   LAYER   1   ROW     6   COL     8   RATE   -100.0000    
 BOUNDARY     84   LAYER   1   ROW     6   COL     9   RATE   -100.0000    
 BOUNDARY     85   LAYER   1   ROW     6   COL    10   RATE   -100.0000    
 BOUNDARY     86   LAYER   1   ROW     6   COL    11   RATE   -100.0000    
 BOUNDARY     87   LAYER   1   ROW     6   COL    12   RATE    -26.5656    
 BOUNDARY     88   LAYER   1   ROW     6   COL    13   RATE    -4.13159    
 BOUNDARY     89   LAYER   1   ROW     6   COL    14   RATE     0.00000    
 BOUNDARY     90   LAYER   1   ROW     6   COL    15   RATE     0.00000    
 BOUNDARY     91   LAYER   1   ROW     7   COL     1   RATE     0.00000    
 BOUNDARY     92   LAYER   1   ROW     7   COL     2   RATE   -0.942983    
 BOUNDARY     93   LAYER   1   ROW     7   COL     3   RATE    -40.0026    
 BOUNDARY     94   LAYER   1   ROW     7   COL     4   RATE   -100.0000    
 BOUNDARY     95   LAYER   1   ROW     7   COL     5   RATE   -100.0000    
 BOUNDARY     96   LAYER   1   ROW     7   COL     6   RATE   -100.0000    
 BOUNDARY     97   LAYER   1   ROW     7   COL     7   RATE   -100.0000    
 BOUNDARY     98   LAYER   1   ROW     7   COL     8   RATE   -100.0000    
 BOUNDARY     99   LAYER   1   ROW     7   COL     9   RATE   -100.0000    
 BOUNDARY    100   LAYER   1   ROW     7   COL    10   RATE   -100.0000    
 BOUNDARY    101   LAYER   1   ROW     7   COL    11   RATE   -100.0000    
 BOUNDARY    102   LAYER   1   ROW     7   COL    12   RATE    -26.4001    
 BOUNDARY    103   LAYER   1   ROW     7   COL    13   RATE    -3.39263    
 BOUNDARY    104   LAYER   1   ROW     7   COL    14   RATE     0.00000    
 BOUNDARY    105   LAYER   1   ROW     7   COL    15   RATE     0.00000    
 BOUNDARY    106   LAYER   1   ROW     8   COL     1   RATE     0.00000    
 BOUNDARY    107   LAYER   1   ROW     8   COL     2   RATE    -10.9947    
 BOUNDARY    108   LAYER   1   ROW     8   COL     3   RATE   -100.0000    
 BOUNDARY    109   LAYER   1   ROW     8   COL     4   RATE   -100.0000    
 BOUNDARY    110   LAYER   1   ROW     8   COL     5   RATE   -100.0000    
 BOUNDARY    111   LAYER   1   ROW     8   COL     6   RATE   -100.0000    
 BOUNDARY    112   LAYER   1   ROW     8   COL     7   RATE   -100.0000    
 BOUNDARY    113   LAYER   1   ROW     8   COL     8   RATE   -100.0000    
 BOUNDARY    114   LAYER   1   ROW     8   COL     9   RATE   -100.0000    
 BOUNDARY    115   LAYER   1   ROW     8   COL    10   RATE   -100.0000    
 BOUNDARY    116   LAYER   1   ROW     8   COL    11   RATE   -100.0000    
 BOUNDARY    117   LAYER   1   ROW     8   COL    12   RATE    -26.7851    
 BOUNDARY    118   LAYER   1   ROW     8   COL    13   RATE    -3.39140    
 BOUNDARY    119   LAYER   1   ROW     8   COL    14   RATE     0.00000    
 BOUNDARY    120   LAYER   1   ROW     8   COL    15   RATE     0.00000    
 BOUNDARY    121   LAYER   1   ROW     9   COL     1   RATE    -18.5729    
 BOUNDARY    122   LAYER   1   ROW     9   COL     2   RATE    -59.0872    
 BOUNDARY    123   LAYER   1   ROW     9   COL     3   RATE   -100.0000    
 BOUNDARY    124   LAYER   1   ROW     9   COL     4   RATE   -100.0000    
 BOUNDARY    125   LAYER   1   ROW     9   COL     5   RATE   -100.0000    
 BOUNDARY    126   LAYER   1   ROW     9   COL     6   RATE   -100.0000    
 BOUNDARY    127   LAYER   1   ROW     9   COL     7   RATE   -100.0000    
 BOUNDARY    128   LAYER   1   ROW     9   COL     8   RATE   -100.0000    
 BOUNDARY    129   LAYER   1   ROW     9   COL     9   RATE   -100.0000    
 BOUNDARY    130   LAYER   1   ROW     9   COL    10   RATE   -100.0000    
 BOUNDARY    131   LAYER   1   ROW     9   COL    11   RATE   -100.0000    
 BOUNDARY    132   LAYER   1   ROW     9   COL    12   RATE    -27.8788    
 BOUNDARY    133   LAYER   1   ROW     9   COL    13   RATE    -4.20224    
 BOUNDARY    134   LAYER   1   ROW     9   COL    14   RATE     0.00000    
 BOUNDARY    135   LAYER   1   ROW     9   COL    15   RATE     0.00000    
 BOUNDARY    136   LAYER   1   ROW    10   COL     1   RATE    -67.3007    
 BOUNDARY    137   LAYER   1   ROW    10   COL     2   RATE   -100.0000    
 BOUNDARY    138   LAYER   1   ROW    10   COL     3   RATE   -100.0000    
 BOUNDARY    139   LAYER   1   ROW    10   COL     4   RATE   -100.0000    
 BOUNDARY    140   LAYER   1   ROW    10   COL     5   RATE   -100.0000    
 BOUNDARY    141   LAYER   1   ROW    10   COL     6   RATE   -100.0000    
 BOUNDARY    142   LAYER   1   ROW    10   COL     7   RATE   -100.0000    
 BOUNDARY    143   LAYER   1   ROW    10   COL     8   RATE   -100.0000    
 BOUNDARY    144   LAYER   1   ROW    10   COL     9   RATE   -100.0000    
 BOUNDARY    145   LAYER   1   ROW    10   COL    10   RATE   -100.0000    
 BOUNDARY    146   LAYER   1   ROW    10   COL    11   RATE   -100.0000    
 BOUNDARY    147   LAYER   1   ROW    10   COL    12   RATE    -28.6726    
 BOUNDARY    148   LAYER   1   ROW    10   COL    13   RATE    -4.72695    
 BOUNDARY    149   LAYER   1   ROW    10   COL    14   RATE     0.00000    
 BOUNDARY    150   LAYER   1   ROW    10   COL    15   RATE     0.00000    

 HEAD WILL BE SAVED ON UNIT 1017 AT END OF TIME STEP    3, STRESS PERIOD    2
WEL   no.    1 value from time series:   0.0000     for time:  4.000     to  5.000    
WEL   no.    2 value from time series:   0.0000     for time:  4.000     to  5.000    
RIV   no.    1 value from time series:   103.75     for time:  4.000     to  5.000    
RIV   no.    2 value from time series:   103.75     for time:  4.000     to  5.000    
RIV   no.    3 value from time series:   113.03     for time:  4.000     to  5.000    
RIV   no.    4 value from time series:   113.03     for time:  4.000     to  5.000    
RIV   no.    5 value from time series:   115.85     for time:  4.000     to  5.000    
RIV   no.    6 value from time series:   115.85     for time:  4.000     to  5.000    
RIV   no.    7 value from time series:   106.03     for time:  4.000     to  5.000    
RIV   no.    8 value from time series:   106.03     for time:  4.000     to  5.000    
RIV   no.    9 value from time series:   115.00     for time:  4.000     to  5.000    
RIV   no.   10 value from time series:   115.00     for time:  4.000     to  5.000    
WEL   no.    1 value from time series:   0.0000     for time:  4.000     to  5.000    
WEL   no.    2 value from time series:   0.0000     for time:  4.000     to  5.000    
RIV   no.    1 value from time series:   103.75     for time:  4.000     to  5.000    
RIV   no.    2 value from time series:   103.75     for time:  4.000     to  5.000    
RIV   no.    3 value from time series:   113.03     for time:  4.000     to  5.000    
RIV   no.    4 value from time series:   113.03     for time:  4.000     to  5.000    
RIV   no.    5 value from time series:   115.85     for time:  4.000     to  5.000    
RIV   no.    6 value from time series:   115.85     for time:  4.000     to  5.000    
RIV   no.    7 value from time series:   106.03     for time:  4.000     to  5.000    
RIV   no.    8 value from time series:   106.03     for time:  4.000     to  5.000    
RIV   no.    9 value from time series:   115.00     for time:  4.000     to  5.000    
RIV   no.   10 value from time series:   115.00     for time:  4.000     to  5.000    

 OUTPUT CONTROL FOR STRESS PERIOD    2   TIME STEP    4
    SAVE BUDGET
    SAVE HEAD
    SAVE HEAD FOR ALL LAYERS
 UBDSV1 SAVING          STORAGE ON UNIT   1016 AT TIME STEP      4, STRESS PERIOD      2
 UBDSV1 SAVING FLOW RIGHT FACE  ON UNIT   1016 AT TIME STEP      4, STRESS PERIOD      2
 UBDSV1 SAVING FLOW FRONT FACE  ON UNIT   1016 AT TIME STEP      4, STRESS PERIOD      2
 UBDSV1 SAVING FLOW LOWER FACE  ON UNIT   1016 AT TIME STEP      4, STRESS PERIOD      2
 UBDSV4 SAVING WELLS NEAR RIVER ON UNIT   1016 AT TIME STEP      4, STRESS PERIOD      2

 WELLS NEAR RIVER   PERIOD  2   STEP  4
 BOUNDARY      1   LAYER   2   ROW     3   COL     4   RATE     0.00000      WELL_1
 BOUNDARY      2   LAYER   2   ROW     8   COL     4   RATE     0.00000      WELL_2
 BOUNDARY      3   LAYER   2   ROW     4   COL     6   RATE   -10.00000    
 BOUNDARY      4   LAYER   2   ROW     5   COL     8   RATE    -20.0000    
 BOUNDARY      5   LAYER   2   ROW     2   COL     9   RATE    -40.0000    
 UBDSV4 SAVING RIVER            ON UNIT   1016 AT TIME STEP      4, STRESS PERIOD      2

 RIVER              PERIOD  2   STEP  4
 BOUNDARY      1   LAYER   1   ROW     1   COL    15   RATE    -2279.44    
 BOUNDARY      2   LAYER   1   ROW     2   COL    15   RATE    -3375.11      RIV2
 BOUNDARY      3   LAYER   1   ROW     3   COL    15   RATE    -549.084      RIV3
 BOUNDARY      4   LAYER   1   ROW     4   COL    15   RATE    -2033.92    
 BOUNDARY      5   LAYER   1   ROW     5   COL    15   RATE    -1673.43    
 BOUNDARY      6   LAYER   1   ROW     6   COL    15   RATE    -1050.59    
 BOUNDARY      7   LAYER   1   ROW     7   COL    15   RATE    -4295.50      RIVX
 BOUNDARY      8   LAYER   1   ROW     8   COL    15   RATE    -4065.70      RIVX
 BOUNDARY      9   LAYER   1   ROW     9   COL    15   RATE    -376.766      RIVX
 BOUNDARY     10   LAYER   1   ROW    10   COL    15   RATE    -1225.51    

 GHB LAKES          PERIOD  2   STEP  4
 BOUNDARY      1   LAYER   1   ROW     3   COL     1   RATE    -14419.4    
 BOUNDARY      2   LAYER   1   ROW     7   COL     1   RATE    -1823.39      GHB2_UPPER
 BOUNDARY      3   LAYER   1   ROW     7   COL     1   RATE    -13202.9      GHB2_LOWER
 UBDSV4 SAVING RECHARGE         ON UNIT   1016 AT TIME STEP      4, STRESS PERIOD      2

 RECHARGE           PERIOD  2   STEP  4
 BOUNDARY      1   LAYER   1   ROW     1   COL     1   RATE     509.375    
 BOUNDARY      2   LAYER   1   ROW     1   COL     2   RATE     509.375    
 BOUNDARY      3   LAYER   1   ROW     1   COL     3   RATE     509.375    
 BOUNDARY      4   LAYER   1   ROW     1   COL     4   RATE     509.375    
 BOUNDARY      5   LAYER   1   ROW     1   COL     5   RATE     509.375    
 BOUNDARY      6   LAYER   1   ROW     1   COL     6   RATE     509.375    
 BOUNDARY      7   LAYER   1   ROW     1   COL     7   RATE     509.375    
 BOUNDARY      8   LAYER   1   ROW     1   COL     8   RATE     509.375    
 BOUNDARY      9   LAYER   1   ROW     1   COL     9   RATE     509.375    
 BOUNDARY     10   LAYER   1   ROW     1   COL    10   RATE     509.375    
 BOUNDARY     11   LAYER   1   ROW     1   COL    11   RATE     509.375    
 BOUNDARY     12   LAYER   1   ROW     1   COL    12   RATE     509.375    
 BOUNDARY     13   LAYER   1   ROW     1   COL    13   RATE     509.375    
 BOUNDARY     14   LAYER   1   ROW     1   COL    14   RATE     509.375    
 BOUNDARY     15   LAYER   1   ROW     1   COL    15   RATE     509.375    
 BOUNDARY     16   LAYER   1   ROW     2   COL     1   RATE     509.375    
 BOUNDARY     17   LAYER   1   ROW     2   COL     2   RATE     509.375    
 BOUNDARY     18   LAYER   1   ROW     2   COL     3   RATE     509.375    
 BOUNDARY     19   LAYER   1   ROW     2   COL     4   RATE     509.375    
 BOUNDARY     20   LAYER   1   ROW     2   COL     5   RATE     509.375    
 BOUNDARY     21   LAYER   1   ROW     2   COL     6   RATE     509.375    
 BOUNDARY     22   LAYER   1   ROW     2   COL     7   RATE     509.375    
 BOUNDARY     23   LAYER   1   ROW     2   COL     8   RATE     509.375    
 BOUNDARY     24   LAYER   1   ROW     2   COL     9   RATE     509.375    
 BOUNDARY     25   LAYER   1   ROW     2   COL    10   RATE     509.375    
 BOUNDARY     26   LAYER   1   ROW     2   COL    11   RATE     509.375    
 BOUNDARY     27   LAYER   1   ROW     2   COL    12   RATE     509.375    
 BOUNDARY     28   LAYER   1   ROW     2   COL    13   RATE     509.375    
 BOUNDARY     29   LAYER   1   ROW     2   COL    14   RATE     509.375    
 BOUNDARY     30   LAYER   1   ROW     2   COL    15   RATE     509.375    
 BOUNDARY     31   LAYER   1   ROW     3   COL     1   RATE     509.375    
 BOUNDARY     32   LAYER   1   ROW     3   COL     2   RATE     509.375    
 BOUNDARY     33   LAYER   1   ROW     3   COL     3   RATE     509.375    
 BOUNDARY     34   LAYER   1   ROW     3   COL     4   RATE     509.375    
 BOUNDARY     35   LAYER   1   ROW     3   COL     5   RATE     509.375    
 BOUNDARY     36   LAYER   1   ROW     3   COL     6   RATE     509.375    
 BOUNDARY     37   LAYER   1   ROW     3   COL     7   RATE     509.375    
 BOUNDARY     38   LAYER   1   ROW     3   COL     8   RATE     509.375    
 BOUNDARY     39   LAYER   1   ROW     3   COL     9   RATE     509.375    
 BOUNDARY     40   LAYER   1   ROW     3   COL    10   RATE     509.375    
 BOUNDARY     41   LAYER   1   ROW     3   COL    11   RATE     509.375    
 BOUNDARY     42   LAYER   1   ROW     3   COL    12   RATE     509.375    
 BOUNDARY     43   LAYER   1   ROW     3   COL    13   RATE     509.375    
 BOUNDARY     44   LAYER   1   ROW     3   COL    14   RATE     509.375    
 BOUNDARY     45   LAYER   1   ROW     3   COL    15   RATE     509.375    
 BOUNDARY     46   LAYER   1   ROW     4   COL     1   RATE     509.375    
 BOUNDARY     47   LAYER   1   ROW     4   COL     2   RATE     509.375    
 BOUNDARY     48   LAYER   1   ROW     4   COL     3   RATE     509.375    
 BOUNDARY     49   LAYER   1   ROW     4   COL     4   RATE     509.375    
 BOUNDARY     50   LAYER   1   ROW     4   COL     5   RATE     509.375    
 BOUNDARY     51   LAYER   1   ROW     4   COL     6   RATE     509.375    
 BOUNDARY     52   LAYER   1   ROW     4   COL     7   RATE     509.375    
 BOUNDARY     53   LAYER   1   ROW     4   COL     8   RATE     509.375    
 BOUNDARY     54   LAYER   1   ROW     4   COL     9   RATE     509.375    
 BOUNDARY     55   LAYER   1   ROW     4   COL    10   RATE     509.375    
 BOUNDARY     56   LAYER   1   ROW     4   COL    11   RATE     509.375    
 BOUNDARY     57   LAYER   1   ROW     4   COL    12   RATE     509.375    
 BOUNDARY     58   LAYER   1   ROW     4   COL    13   RATE     509.375    
 BOUNDARY     59   LAYER   1   ROW     4   COL    14   RATE     509.375    
 BOUNDARY     60   LAYER   1   ROW     4   COL    15   RATE     509.375    
 BOUNDARY     61   LAYER   1   ROW     5   COL     1   RATE     509.375    
 BOUNDARY     62   LAYER   1   ROW     5   COL     2   RATE     509.375    
 BOUNDARY     63   LAYER   1   ROW     5   COL     3   RATE     509.375    
 BOUNDARY     64   LAYER   1   ROW     5   COL     4   RATE     509.375    
 BOUNDARY     65   LAYER   1   ROW     5   COL     5   RATE     509.375    
 BOUNDARY     66   LAYER   1   ROW     5   COL     6   RATE     509.375    
 BOUNDARY     67   LAYER   1   ROW     5   COL     7   RATE     509.375    
 BOUNDARY     68   LAYER   1   ROW     5   COL     8   RATE     509.375    
 BOUNDARY     69   LAYER   1   ROW     5   COL     9   RATE     509.375    
 BOUNDARY     70   LAYER   1   ROW     5   COL    10   RATE     509.375    
 BOUNDARY     71   LAYER   1   ROW     5   COL    11   RATE     509.375    
 BOUNDARY     72   LAYER   1   ROW     5   COL    12   RATE     509.375    
 BOUNDARY     73   LAYER   1   ROW     5   COL    13   RATE     509.375    
 BOUNDARY     74   LAYER   1   ROW     5   COL    14   RATE     509.375    
 BOUNDARY     75   LAYER   1   ROW     5   COL    15   RATE     509.375    
 BOUNDARY     76   LAYER   1   ROW     6   COL     1   RATE     509.375    
 BOUNDARY     77   LAYER   1   ROW     6   COL     2   RATE     509.375    
 BOUNDARY     78   LAYER   1   ROW     6   COL     3   RATE     509.375    
 BOUNDARY     79   LAYER   1   ROW     6   COL     4   RATE     509.375    
 BOUNDARY     80   LAYER   1   ROW     6   COL     5   RATE     509.375    
 BOUNDARY     81   LAYER   1   ROW     6   COL     6   RATE     509.375    
 BOUNDARY     82   LAYER   1   ROW     6   COL     7   RATE     509.375    
 BOUNDARY     83   LAYER   1   ROW     6   COL     8   RATE     509.375    
 BOUNDARY     84   LAYER   1   ROW     6   COL     9   RATE     509.375    
 BOUNDARY     85   LAYER   1   ROW     6   COL    10   RATE     509.375    
 BOUNDARY     86   LAYER   1   ROW     6   COL    11   RATE     509.375    
 BOUNDARY     87   LAYER   1   ROW     6   COL    12   RATE     509.375    
 BOUNDARY     88   LAYER   1   ROW     6   COL    13   RATE     509.375    
 BOUNDARY     89   LAYER   1   ROW     6   COL    14   RATE     509.375    
 BOUNDARY     90   LAYER   1   ROW     6   COL    15   RATE     509.375    
 BOUNDARY     91   LAYER   1   ROW     7   COL     1   RATE     509.375    
 BOUNDARY     92   LAYER   1   ROW     7   COL     2   RATE     509.375    
 BOUNDARY     93   LAYER   1   ROW     7   COL     3   RATE     509.375    
 BOUNDARY     94   LAYER   1   ROW     7   COL     4   RATE     509.375    
 BOUNDARY     95   LAYER   1   ROW     7   COL     5   RATE     509.375    
 BOUNDARY     96   LAYER   1   ROW     7   COL     6   RATE     509.375    
 BOUNDARY     97   LAYER   1   ROW     7   COL     7   RATE     509.375    
 BOUNDARY     98   LAYER   1   ROW     7   COL     8   RATE     509.375    
 BOUNDARY     99   LAYER   1   ROW     7   COL     9   RATE     509.375    
 BOUNDARY    100   LAYER   1   ROW     7   COL    10   RATE     509.375    
 BOUNDARY    101   LAYER   1   ROW     7   COL    11   RATE     509.375    
 BOUNDARY    102   LAYER   1   ROW     7   COL    12   RATE     509.375    
 BOUNDARY    103   LAYER   1   ROW     7   COL    13   RATE     509.375    
 BOUNDARY    104   LAYER   1   ROW     7   COL    14   RATE     509.375    
 BOUNDARY    105   LAYER   1   ROW     7   COL    15   RATE     509.375    
 BOUNDARY    106   LAYER   1   ROW     8   COL     1   RATE     509.375    
 BOUNDARY    107   LAYER   1   ROW     8   COL     2   RATE     509.375    
 BOUNDARY    108   LAYER   1   ROW     8   COL     3   RATE     509.375    
 BOUNDARY    109   LAYER   1   ROW     8   COL     4   RATE     509.375    
 BOUNDARY    110   LAYER   1   ROW     8   COL     5   RATE     509.375    
 BOUNDARY    111   LAYER   1   ROW     8   COL     6   RATE     509.375    
 BOUNDARY    112   LAYER   1   ROW     8   COL     7   RATE     509.375    
 BOUNDARY    113   LAYER   1   ROW     8   COL     8   RATE     509.375    
 BOUNDARY    114   LAYER   1   ROW     8   COL     9   RATE     509.375    
 BOUNDARY    115   LAYER   1   ROW     8   COL    10   RATE     509.375    
 BOUNDARY    116   LAYER   1   ROW     8   COL    11   RATE     509.375    
 BOUNDARY    117   LAYER   1   ROW     8   COL    12   RATE     509.375    
 BOUNDARY    118   LAYER   1   ROW     8   COL    13   RATE     509.375    
 BOUNDARY    119   LAYER   1   ROW     8   COL    14   RATE     509.375    
 BOUNDARY    120   LAYER   1   ROW     8   COL    15   RATE     509.375    
 BOUNDARY    121   LAYER   1   ROW     9   COL     1   RATE     509.375    
 BOUNDARY    122   LAYER   1   ROW     9   COL     2   RATE     509.375    
 BOUNDARY    123   LAYER   1   ROW     9   COL     3   RATE     509.375    
 BOUNDARY    124   LAYER   1   ROW     9   COL     4   RATE     509.375    
 BOUNDARY    125   LAYER   1   ROW     9   COL     5   RATE     509.375    
 BOUNDARY    126   LAYER   1   ROW     9   COL     6   RATE     509.375    
 BOUNDARY    127   LAYER   1   ROW     9   COL     7   RATE     509.375    
 BOUNDARY    128   LAYER   1   ROW     9   COL     8   RATE     509.375    
 BOUNDARY    129   LAYER   1   ROW     9   COL     9   RATE     509.375    
 BOUNDARY    130   LAYER   1   ROW     9   COL    10   RATE     509.375    
 BOUNDARY    131   LAYER   1   ROW     9   COL    11   RATE     509.375    
 BOUNDARY    132   LAYER   1   ROW     9   COL    12   RATE     509.375    
 BOUNDARY    133   LAYER   1   ROW     9   COL    13   RATE     509.375    
 BOUNDARY    134   LAYER   1   ROW     9   COL    14   RATE     509.375    
 BOUNDARY    135   LAYER   1   ROW     9   COL    15   RATE     509.375    
 BOUNDARY    136   LAYER   1   ROW    10   COL     1   RATE     509.375    
 BOUNDARY    137   LAYER   1   ROW    10   COL     2   RATE     509.375    
 BOUNDARY    138   LAYER   1   ROW    10   COL     3   RATE     509.375    
 BOUNDARY    139   LAYER   1   ROW    10   COL     4   RATE     509.375    
 BOUNDARY    140   LAYER   1   ROW    10   COL     5   RATE     509.375    
 BOUNDARY    141   LAYER   1   ROW    10   COL     6   RATE     509.375    
 BOUNDARY    142   LAYER   1   ROW    10   COL     7   RATE     509.375    
 BOUNDARY    143   LAYER   1   ROW    10   COL     8   RATE     509.375    
 BOUNDARY    144   LAYER   1   ROW    10   COL     9   RATE     509.375    
 BOUNDARY    145   LAYER   1   ROW    10   COL    10   RATE     509.375    
 BOUNDARY    146   LAYER   1   ROW    10   COL    11   RATE     509.375    
 BOUNDARY    147   LAYER   1   ROW    10   COL    12   RATE     509.375    
 BOUNDARY    148   LAYER   1   ROW    10   COL    13   RATE     509.375    
 BOUNDARY    149   LAYER   1   ROW    10   COL    14   RATE     509.375    
 BOUNDARY    150   LAYER   1   ROW    10   COL    15   RATE     509.375    
 UBDSV4 SAVING ET SEGS          ON UNIT   1016 AT TIME STEP      4, STRESS PERIOD      2

 ET SEGS            PERIOD  2   STEP  4
 BOUNDARY      1   LAYER   1   ROW     1   COL     1   RATE    -2.06645    
 BOUNDARY      2   LAYER   1   ROW     1   COL     2   RATE    -8.91907    
 BOUNDARY      3   LAYER   1   ROW     1   COL     3   RATE    -47.6707    
 BOUNDARY      4   LAYER   1   ROW     1   COL     4   RATE   -100.0000    
 BOUNDARY      5   LAYER   1   ROW     1   COL     5   RATE   -100.0000    
 BOUNDARY      6   LAYER   1   ROW     1   COL     6   RATE   -100.0000    
 BOUNDARY      7   LAYER   1   ROW     1   COL     7   RATE   -100.0000    
 BOUNDARY      8   LAYER   1   ROW     1   COL     8   RATE   -100.0000    
 BOUNDARY      9   LAYER   1   ROW     1   COL     9   RATE   -100.0000    
 BOUNDARY     10   LAYER   1   ROW     1   COL    10   RATE   -100.0000    
 BOUNDARY     11   LAYER   1   ROW     1   COL    11   RATE   -100.0000    
 BOUNDARY     12   LAYER   1   ROW     1   COL    12   RATE    -16.5009    
 BOUNDARY     13   LAYER   1   ROW     1   COL    13   RATE     0.00000    
 BOUNDARY     14   LAYER   1   ROW     1   COL    14   RATE     0.00000    
 BOUNDARY     15   LAYER   1   ROW     1   COL    15   RATE     0.00000    
 BOUNDARY     16   LAYER   1   ROW     2   COL     1   RATE     0.00000    
 BOUNDARY     17   LAYER   1   ROW     2   COL     2   RATE    -4.40392    
 BOUNDARY     18   LAYER   1   ROW     2   COL     3   RATE    -27.9946    
 BOUNDARY     19   LAYER   1   ROW     2   COL     4   RATE   -100.0000    
 BOUNDARY     20   LAYER   1   ROW     2   COL     5   RATE   -100.0000    
 BOUNDARY     21   LAYER   1   ROW     2   COL     6   RATE   -100.0000    
 BOUNDARY     22   LAYER   1   ROW     2   COL     7   RATE   -100.0000    
 BOUNDARY     23   LAYER   1   ROW     2   COL     8   RATE   -100.0000    
 BOUNDARY     24   LAYER   1   ROW     2   COL     9   RATE   -100.0000    
 BOUNDARY     25   LAYER   1   ROW     2   COL    10   RATE   -100.0000    
 BOUNDARY     26   LAYER   1   ROW     2   COL    11   RATE   -100.0000    
 BOUNDARY     27   LAYER   1   ROW     2   COL    12   RATE    -18.2406    
 BOUNDARY     28   LAYER   1   ROW     2   COL    13   RATE     0.00000    
 BOUNDARY     29   LAYER   1   ROW     2   COL    14   RATE     0.00000    
 BOUNDARY     30   LAYER   1   ROW     2   COL    15   RATE     0.00000    
 BOUNDARY     31   LAYER   1   ROW     3   COL     1   RATE     0.00000    
 BOUNDARY     32   LAYER   1   ROW     3   COL     2   RATE     0.00000    
 BOUNDARY     33   LAYER   1   ROW     3   COL     3   RATE    -22.0059    
 BOUNDARY     34   LAYER   1   ROW     3   COL     4   RATE   -100.0000    
 BOUNDARY     35   LAYER   1   ROW     3   COL     5   RATE   -100.0000    
 BOUNDARY     36   LAYER   1   ROW     3   COL     6   RATE   -100.0000    
 BOUNDARY     37   LAYER   1   ROW     3   COL     7   RATE   -100.0000    
 BOUNDARY     38   LAYER   1   ROW     3   COL     8   RATE   -100.0000    
 BOUNDARY     39   LAYER   1   ROW     3   COL     9   RATE   -100.0000    
 BOUNDARY     40   LAYER   1   ROW     3   COL    10   RATE   -100.0000    
 BOUNDARY     41   LAYER   1   ROW     3   COL    11   RATE   -100.0000    
 BOUNDARY     42   LAYER   1   ROW     3   COL    12   RATE    -21.1749    
 BOUNDARY     43   LAYER   1   ROW     3   COL    13   RATE    -1.78569    
 BOUNDARY     44   LAYER   1   ROW     3   COL    14   RATE     0.00000    
 BOUNDARY     45   LAYER   1   ROW     3   COL    15   RATE     0.00000    
 BOUNDARY     46   LAYER   1   ROW     4   COL     1   RATE     0.00000    
 BOUNDARY     47   LAYER   1   ROW     4   COL     2   RATE    -2.89000    
 BOUNDARY     48   LAYER   1   ROW     4   COL     3   RATE    -25.8708    
 BOUNDARY     49   LAYER   1   ROW     4   COL     4   RATE   -100.0000    
 BOUNDARY     50   LAYER   1   ROW     4   COL     5   RATE   -100.0000    
 BOUNDARY     51   LAYER   1   ROW     4   COL     6   RATE   -100.0000    
 BOUNDARY     52   LAYER   1   ROW     4   COL     7   RATE   -100.0000    
 BOUNDARY     53   LAYER   1   ROW     4   COL     8   RATE   -100.0000    
 BOUNDARY     54   LAYER   1   ROW     4   COL     9   RATE   -100.0000    
 BOUNDARY     55   LAYER   1   ROW     4   COL    10   RATE   -100.0000    
 BOUNDARY     56   LAYER   1   ROW     4   COL    11   RATE   -100.0000    
 BOUNDARY     57   LAYER   1   ROW     4   COL    12   RATE    -23.9761    
 BOUNDARY     58   LAYER   1   ROW     4   COL    13   RATE    -3.25203    
 BOUNDARY     59   LAYER   1   ROW     4   COL    14   RATE     0.00000    
 BOUNDARY     60   LAYER   1   ROW     4   COL    15   RATE     0.00000    
 BOUNDARY     61   LAYER   1   ROW     5   COL     1   RATE     0.00000    
 BOUNDARY     62   LAYER   1   ROW     5   COL     2   RATE    -5.86326    
 BOUNDARY     63   LAYER   1   ROW     5   COL     3   RATE    -29.8583    
 BOUNDARY     64   LAYER   1   ROW     5   COL     4   RATE   -100.0000    
 BOUNDARY     65   LAYER   1   ROW     5   COL     5   RATE   -100.0000    
 BOUNDARY     66   LAYER   1   ROW     5   COL     6   RATE   -100.0000    
 BOUNDARY     67   LAYER   1   ROW     5   COL     7   RATE   -100.0000    
 BOUNDARY     68   LAYER   1   ROW     5   COL     8   RATE   -100.0000    
 BOUNDARY     69   LAYER   1   ROW     5   COL     9   RATE   -100.0000    
 BOUNDARY     70   LAYER   1   ROW     5   COL    10   RATE   -100.0000    
 BOUNDARY     71   LAYER   1   ROW     5   COL    11   RATE   -100.0000    
 BOUNDARY     72   LAYER   1   ROW     5   COL    12   RATE    -25.9186    
 BOUNDARY     73   LAYER   1   ROW     5   COL    13   RATE    -4.17243    
 BOUNDARY     74   LAYER   1   ROW     5   COL    14   RATE     0.00000    
 BOUNDARY     75   LAYER   1   ROW     5   COL    15   RATE     0.00000    
 BOUNDARY     76   LAYER   1   ROW     6   COL     1   RATE     0.00000    
 BOUNDARY     77   LAYER   1   ROW     6   COL     2   RATE    -4.43529    
 BOUNDARY     78   LAYER   1   ROW     6   COL     3   RATE    -33.1272    
 BOUNDARY     79   LAYER   1   ROW     6   COL     4   RATE   -100.0000    
 BOUNDARY     80   LAYER   1   ROW     6   COL     5   RATE   -100.0000    
 BOUNDARY     81   LAYER   1   ROW     6   COL     6   RATE   -100.0000    
 BOUNDARY     82   LAYER   1   ROW     6   COL     7   RATE   -100.0000    
 BOUNDARY     83   LAYER   1   ROW     6   COL     8   RATE   -100.0000    
 BOUNDARY     84   LAYER   1   ROW     6   COL     9   RATE   -100.0000    
 BOUNDARY     85   LAYER   1   ROW     6   COL    10   RATE   -100.0000    
 BOUNDARY     86   LAYER   1   ROW     6   COL    11   RATE   -100.0000    
 BOUNDARY     87   LAYER   1   ROW     6   COL    12   RATE    -26.5678    
 BOUNDARY     88   LAYER   1   ROW     6   COL    13   RATE    -4.13232    
 BOUNDARY     89   LAYER   1   ROW     6   COL    14   RATE     0.00000    
 BOUNDARY     90   LAYER   1   ROW     6   COL    15   RATE     0.00000    
 BOUNDARY     91   LAYER   1   ROW     7   COL     1   RATE     0.00000    
 BOUNDARY     92   LAYER   1   ROW     7   COL     2   RATE   -0.943535    
 BOUNDARY     93   LAYER   1   ROW     7   COL     3   RATE    -40.0141    
 BOUNDARY     94   LAYER   1   ROW     7   COL     4   RATE   -100.0000    
 BOUNDARY     95   LAYER   1   ROW     7   COL     5   RATE   -100.0000    
 BOUNDARY     96   LAYER   1   ROW     7   COL     6   RATE   -100.0000    
 BOUNDARY     97   LAYER   1   ROW     7   COL     7   RATE   -100.0000    
 BOUNDARY     98   LAYER   1   ROW     7   COL     8   RATE   -100.0000    
 BOUNDARY     99   LAYER   1   ROW     7   COL     9   RATE   -100.0000    
 BOUNDARY    100   LAYER   1   ROW     7   COL    10   RATE   -100.0000    
 BOUNDARY    101   LAYER   1   ROW     7   COL    11   RATE   -100.0000    
 BOUNDARY    102   LAYER   1   ROW     7   COL    12   RATE    -26.4023    
 BOUNDARY    103   LAYER   1   ROW     7   COL    13   RATE    -3.39341    
 BOUNDARY    104   LAYER   1   ROW     7   COL    14   RATE     0.00000    
 BOUNDARY    105   LAYER   1   ROW     7   COL    15   RATE     0.00000    
 BOUNDARY    106   LAYER   1   ROW     8   COL     1   RATE     0.00000    
 BOUNDARY    107   LAYER   1   ROW     8   COL     2   RATE    -10.9969    
 BOUNDARY    108   LAYER   1   ROW     8   COL     3   RATE   -100.0000    
 BOUNDARY    109   LAYER   1   ROW     8   COL     4   RATE   -100.0000    
 BOUNDARY    110   LAYER   1   ROW     8   COL     5   RATE   -100.0000    
 BOUNDARY    111   LAYER   1   ROW     8   COL     6   RATE   -100.0000    
 BOUNDARY    112   LAYER   1   ROW     8   COL     7   RATE   -100.0000    
 BOUNDARY    113   LAYER   1   ROW     8   COL     8   RATE   -100.0000    
 BOUNDARY    114   LAYER   1   ROW     8   COL     9   RATE   -100.0000    
 BOUNDARY    115   LAYER   1   ROW     8   COL    10   RATE   -100.0000    
 BOUNDARY    116   LAYER   1   ROW     8   COL    11   RATE   -100.0000    
 BOUNDARY    117   LAYER   1   ROW     8   COL    12   RATE    -26.7873    
 BOUNDARY    118   LAYER   1   ROW     8   COL    13   RATE    -3.39217    
 BOUNDARY    119   LAYER   1   ROW     8   COL    14   RATE     0.00000    
 BOUNDARY    120   LAYER   1   ROW     8   COL    15   RATE     0.00000    
 BOUNDARY    121   LAYER   1   ROW     9   COL     1   RATE    -18.5751    
 BOUNDARY    122   LAYER   1   ROW     9   COL     2   RATE    -59.0988    
 BOUNDARY    123   LAYER   1   ROW     9   COL     3   RATE   -100.0000    
 BOUNDARY    124   LAYER   1   ROW     9   COL     4   RATE   -100.0000    
 BOUNDARY    125   LAYER   1   ROW     9   COL     5   RATE   -100.0000    
 BOUNDARY    126   LAYER   1   ROW     9   COL     6   RATE   -100.0000    
 BOUNDARY    127   LAYER   1   ROW     9   COL     7   RATE   -100.0000    
 BOUNDARY    128   LAYER   1   ROW     9   COL     8   RATE   -100.0000    
 BOUNDARY    129   LAYER   1   ROW     9   COL     9   RATE   -100.0000    
 BOUNDARY    130   LAYER   1   ROW     9   COL    10   RATE   -100.0000    
 BOUNDARY    131   LAYER   1   ROW     9   COL    11   RATE   -100.0000    
 BOUNDARY    132   LAYER   1   ROW     9   COL    12   RATE    -27.8810    
 BOUNDARY    133   LAYER   1   ROW     9   COL    13   RATE    -4.20298    
 BOUNDARY    134   LAYER   1   ROW     9   COL    14   RATE     0.00000    
 BOUNDARY    135   LAYER   1   ROW     9   COL    15   RATE     0.00000    
 BOUNDARY    136   LAYER   1   ROW    10   COL     1   RATE    -67.3123    
 BOUNDARY    137   LAYER   1   ROW    10   COL     2   RATE   -100.0000    
 BOUNDARY    138   LAYER   1   ROW    10   COL     3   RATE   -100.0000    
 BOUNDARY    139   LAYER   1   ROW    10   COL     4   RATE   -100.0000    
 BOUNDARY    140   LAYER   1   ROW    10   COL     5   RATE   -100.0000    
 BOUNDARY    141   LAYER   1   ROW    10   COL     6   RATE   -100.0000    
 BOUNDARY    142   LAYER   1   ROW    10   COL     7   RATE   -100.0000    
 BOUNDARY    143   LAYER   1   ROW    10   COL     8   RATE   -100.0000    
 BOUNDARY    144   LAYER   1   ROW    10   COL     9   RATE   -100.0000    
 BOUNDARY    145   LAYER   1   ROW    10   COL    10   RATE   -100.0000    
 BOUNDARY    146   LAYER   1   ROW    10   COL    11   RATE   -100.0000    
 BOUNDARY    147   LAYER   1   ROW    10   COL    12   RATE    -28.6748    
 BOUNDARY    148   LAYER   1   ROW    10   COL    13   RATE    -4.72769    
 BOUNDARY    149   LAYER   1   ROW    10   COL    14   RATE     0.00000    
 BOUNDARY    150   LAYER   1   ROW    10   COL    15   RATE     0.00000    

 HEAD WILL BE SAVED ON UNIT 1017 AT END OF TIME STEP    4, STRESS PERIOD    2
WEL   no.    1 value from time series:   0.0000     for time:  5.000     to  6.000    
WEL   no.    2 value from time series:   0.0000     for time:  5.000     to  6.000    
RIV   no.    1 value from time series:   103.25     for time:  5.000     to  6.000    
RIV   no.    2 value from time series:   103.25     for time:  5.000     to  6.000    
RIV   no.    3 value from time series:   113.07     for time:  5.000     to  6.000    
RIV   no.    4 value from time series:   113.07     for time:  5.000     to  6.000    
RIV   no.    5 value from time series:   115.75     for time:  5.000     to  6.000    
RIV   no.    6 value from time series:   115.75     for time:  5.000     to  6.000    
RIV   no.    7 value from time series:   105.47     for time:  5.000     to  6.000    
RIV   no.    8 value from time series:   105.47     for time:  5.000     to  6.000    
RIV   no.    9 value from time series:   115.00     for time:  5.000     to  6.000    
RIV   no.   10 value from time series:   115.00     for time:  5.000     to  6.000    
WEL   no.    1 value from time series:   0.0000     for time:  5.000     to  6.000    
WEL   no.    2 value from time series:   0.0000     for time:  5.000     to  6.000    
RIV   no.    1 value from time series:   103.25     for time:  5.000     to  6.000    
RIV   no.    2 value from time series:   103.25     for time:  5.000     to  6.000    
RIV   no.    3 value from time series:   113.07     for time:  5.000     to  6.000    
RIV   no.    4 value from time series:   113.07     for time:  5.000     to  6.000    
RIV   no.    5 value from time series:   115.75     for time:  5.000     to  6.000    
RIV   no.    6 value from time series:   115.75     for time:  5.000     to  6.000    
RIV   no.    7 value from time series:   105.47     for time:  5.000     to  6.000    
RIV   no.    8 value from time series:   105.47     for time:  5.000     to  6.000    
RIV   no.    9 value from time series:   115.00     for time:  5.000     to  6.000    
RIV   no.   10 value from time series:   115.00     for time:  5.000     to  6.000    

 OUTPUT CONTROL FOR STRESS PERIOD    2   TIME STEP    5
    SAVE BUDGET
    SAVE HEAD
    SAVE HEAD FOR ALL LAYERS
 UBDSV1 SAVING          STORAGE ON UNIT   1016 AT TIME STEP      5, STRESS PERIOD      2
 UBDSV1 SAVING FLOW RIGHT FACE  ON UNIT   1016 AT TIME STEP      5, STRESS PERIOD      2
 UBDSV1 SAVING FLOW FRONT FACE  ON UNIT   1016 AT TIME STEP      5, STRESS PERIOD      2
 UBDSV1 SAVING FLOW LOWER FACE  ON UNIT   1016 AT TIME STEP      5, STRESS PERIOD      2
 UBDSV4 SAVING WELLS NEAR RIVER ON UNIT   1016 AT TIME STEP      5, STRESS PERIOD      2

 WELLS NEAR RIVER   PERIOD  2   STEP  5
 BOUNDARY      1   LAYER   2   ROW     3   COL     4   RATE     0.00000      WELL_1
 BOUNDARY      2   LAYER   2   ROW     8   COL     4   RATE     0.00000      WELL_2
 BOUNDARY      3   LAYER   2   ROW     4   COL     6   RATE   -10.00000    
 BOUNDARY      4   LAYER   2   ROW     5   COL     8   RATE    -20.0000    
 BOUNDARY      5   LAYER   2   ROW     2   COL     9   RATE    -40.0000    
 UBDSV4 SAVING RIVER            ON UNIT   1016 AT TIME STEP      5, STRESS PERIOD      2

 RIVER              PERIOD  2   STEP  5
 BOUNDARY      1   LAYER   1   ROW     1   COL    15   RATE    -2849.62    
 BOUNDARY      2   LAYER   1   ROW     2   COL    15   RATE    -3944.54      RIV2
 BOUNDARY      3   LAYER   1   ROW     3   COL    15   RATE    -562.191      RIV3
 BOUNDARY      4   LAYER   1   ROW     4   COL    15   RATE    -2044.76    
 BOUNDARY      5   LAYER   1   ROW     5   COL    15   RATE    -1785.44    
 BOUNDARY      6   LAYER   1   ROW     6   COL    15   RATE    -1163.22    
 BOUNDARY      7   LAYER   1   ROW     7   COL    15   RATE    -4889.81      RIVX
 BOUNDARY      8   LAYER   1   ROW     8   COL    15   RATE    -4661.85      RIVX
 BOUNDARY      9   LAYER   1   ROW     9   COL    15   RATE    -446.184      RIVX
 BOUNDARY     10   LAYER   1   ROW    10   COL    15   RATE    -1294.65    

 GHB LAKES          PERIOD  2   STEP  5
 BOUNDARY      1   LAYER   1   ROW     3   COL     1   RATE    -14419.2    
 BOUNDARY      2   LAYER   1   ROW     7   COL     1   RATE    -1821.97      GHB2_UPPER
 BOUNDARY      3   LAYER   1   ROW     7   COL     1   RATE    -13202.4      GHB2_LOWER
 UBDSV4 SAVING RECHARGE         ON UNIT   1016 AT TIME STEP      5, STRESS PERIOD      2

 RECHARGE           PERIOD  2   STEP  5
 BOUNDARY      1   LAYER   1   ROW     1   COL     1   RATE     511.458    
 BOUNDARY      2   LAYER   1   ROW     1   COL     2   RATE     511.458    
 BOUNDARY      3   LAYER   1   ROW     1   COL     3   RATE     511.458    
 BOUNDARY      4   LAYER   1   ROW     1   COL     4   RATE     511.458    
 BOUNDARY      5   LAYER   1   ROW     1   COL     5   RATE     511.458    
 BOUNDARY      6   LAYER   1   ROW     1   COL     6   RATE     511.458    
 BOUNDARY      7   LAYER   1   ROW     1   COL     7   RATE     511.458    
 BOUNDARY      8   LAYER   1   ROW     1   COL     8   RATE     511.458    
 BOUNDARY      9   LAYER   1   ROW     1   COL     9   RATE     511.458    
 BOUNDARY     10   LAYER   1   ROW     1   COL    10   RATE     511.458    
 BOUNDARY     11   LAYER   1   ROW     1   COL    11   RATE     511.458    
 BOUNDARY     12   LAYER   1   ROW     1   COL    12   RATE     511.458    
 BOUNDARY     13   LAYER   1   ROW     1   COL    13   RATE     511.458    
 BOUNDARY     14   LAYER   1   ROW     1   COL    14   RATE     511.458    
 BOUNDARY     15   LAYER   1   ROW     1   COL    15   RATE     511.458    
 BOUNDARY     16   LAYER   1   ROW     2   COL     1   RATE     511.458    
 BOUNDARY     17   LAYER   1   ROW     2   COL     2   RATE     511.458    
 BOUNDARY     18   LAYER   1   ROW     2   COL     3   RATE     511.458    
 BOUNDARY     19   LAYER   1   ROW     2   COL     4   RATE     511.458    
 BOUNDARY     20   LAYER   1   ROW     2   COL     5   RATE     511.458    
 BOUNDARY     21   LAYER   1   ROW     2   COL     6   RATE     511.458    
 BOUNDARY     22   LAYER   1   ROW     2   COL     7   RATE     511.458    
 BOUNDARY     23   LAYER   1   ROW     2   COL     8   RATE     511.458    
 BOUNDARY     24   LAYER   1   ROW     2   COL     9   RATE     511.458    
 BOUNDARY     25   LAYER   1   ROW     2   COL    10   RATE     511.458    
 BOUNDARY     26   LAYER   1   ROW     2   COL    11   RATE     511.458    
 BOUNDARY     27   LAYER   1   ROW     2   COL    12   RATE     511.458    
 BOUNDARY     28   LAYER   1   ROW     2   COL    13   RATE     511.458    
 BOUNDARY     29   LAYER   1   ROW     2   COL    14   RATE     511.458    
 BOUNDARY     30   LAYER   1   ROW     2   COL    15   RATE     511.458    
 BOUNDARY     31   LAYER   1   ROW     3   COL     1   RATE     511.458    
 BOUNDARY     32   LAYER   1   ROW     3   COL     2   RATE     511.458    
 BOUNDARY     33   LAYER   1   ROW     3   COL     3   RATE     511.458    
 BOUNDARY     34   LAYER   1   ROW     3   COL     4   RATE     511.458    
 BOUNDARY     35   LAYER   1   ROW     3   COL     5   RATE     511.458    
 BOUNDARY     36   LAYER   1   ROW     3   COL     6   RATE     511.458    
 BOUNDARY     37   LAYER   1   ROW     3   COL     7   RATE     511.458    
 BOUNDARY     38   LAYER   1   ROW     3   COL     8   RATE     511.458    
 BOUNDARY     39   LAYER   1   ROW     3   COL     9   RATE     511.458    
 BOUNDARY     40   LAYER   1   ROW     3   COL    10   RATE     511.458    
 BOUNDARY     41   LAYER   1   ROW     3   COL    11   RATE     511.458    
 BOUNDARY     42   LAYER   1   ROW     3   COL    12   RATE     511.458    
 BOUNDARY     43   LAYER   1   ROW     3   COL    13   RATE     511.458    
 BOUNDARY     44   LAYER   1   ROW     3   COL    14   RATE     511.458    
 BOUNDARY     45   LAYER   1   ROW     3   COL    15   RATE     511.458    
 BOUNDARY     46   LAYER   1   ROW     4   COL     1   RATE     511.458    
 BOUNDARY     47   LAYER   1   ROW     4   COL     2   RATE     511.458    
 BOUNDARY     48   LAYER   1   ROW     4   COL     3   RATE     511.458    
 BOUNDARY     49   LAYER   1   ROW     4   COL     4   RATE     511.458    
 BOUNDARY     50   LAYER   1   ROW     4   COL     5   RATE     511.458    
 BOUNDARY     51   LAYER   1   ROW     4   COL     6   RATE     511.458    
 BOUNDARY     52   LAYER   1   ROW     4   COL     7   RATE     511.458    
 BOUNDARY     53   LAYER   1   ROW     4   COL     8   RATE     511.458    
 BOUNDARY     54   LAYER   1   ROW     4   COL     9   RATE     511.458    
 BOUNDARY     55   LAYER   1   ROW     4   COL    10   RATE     511.458    
 BOUNDARY     56   LAYER   1   ROW     4   COL    11   RATE     511.458    
 BOUNDARY     57   LAYER   1   ROW     4   COL    12   RATE     511.458    
 BOUNDARY     58   LAYER   1   ROW     4   COL    13   RATE     511.458    
 BOUNDARY     59   LAYER   1   ROW     4   COL    14   RATE     511.458    
 BOUNDARY     60   LAYER   1   ROW     4   COL    15   RATE     511.458    
 BOUNDARY     61   LAYER   1   ROW     5   COL     1   RATE     511.458    
 BOUNDARY     62   LAYER   1   ROW     5   COL     2   RATE     511.458    
 BOUNDARY     63   LAYER   1   ROW     5   COL     3   RATE     511.458    
 BOUNDARY     64   LAYER   1   ROW     5   COL     4   RATE     511.458    
 BOUNDARY     65   LAYER   1   ROW     5   COL     5   RATE     511.458    
 BOUNDARY     66   LAYER   1   ROW     5   COL     6   RATE     511.458    
 BOUNDARY     67   LAYER   1   ROW     5   COL     7   RATE     511.458    
 BOUNDARY     68   LAYER   1   ROW     5   COL     8   RATE     511.458    
 BOUNDARY     69   LAYER   1   ROW     5   COL     9   RATE     511.458    
 BOUNDARY     70   LAYER   1   ROW     5   COL    10   RATE     511.458    
 BOUNDARY     71   LAYER   1   ROW     5   COL    11   RATE     511.458    
 BOUNDARY     72   LAYER   1   ROW     5   COL    12   RATE     511.458    
 BOUNDARY     73   LAYER   1   ROW     5   COL    13   RATE     511.458    
 BOUNDARY     74   LAYER   1   ROW     5   COL    14   RATE     511.458    
 BOUNDARY     75   LAYER   1   ROW     5   COL    15   RATE     511.458    
 BOUNDARY     76   LAYER   1   ROW     6   COL     1   RATE     511.458    
 BOUNDARY     77   LAYER   1   ROW     6   COL     2   RATE     511.458    
 BOUNDARY     78   LAYER   1   ROW     6   COL     3   RATE     511.458    
 BOUNDARY     79   LAYER   1   ROW     6   COL     4   RATE     511.458    
 BOUNDARY     80   LAYER   1   ROW     6   COL     5   RATE     511.458    
 BOUNDARY     81   LAYER   1   ROW     6   COL     6   RATE     511.458    
 BOUNDARY     82   LAYER   1   ROW     6   COL     7   RATE     511.458    
 BOUNDARY     83   LAYER   1   ROW     6   COL     8   RATE     511.458    
 BOUNDARY     84   LAYER   1   ROW     6   COL     9   RATE     511.458    
 BOUNDARY     85   LAYER   1   ROW     6   COL    10   RATE     511.458    
 BOUNDARY     86   LAYER   1   ROW     6   COL    11   RATE     511.458    
 BOUNDARY     87   LAYER   1   ROW     6   COL    12   RATE     511.458    
 BOUNDARY     88   LAYER   1   ROW     6   COL    13   RATE     511.458    
 BOUNDARY     89   LAYER   1   ROW     6   COL    14   RATE     511.458    
 BOUNDARY     90   LAYER   1   ROW     6   COL    15   RATE     511.458    
 BOUNDARY     91   LAYER   1   ROW     7   COL     1   RATE     511.458    
 BOUNDARY     92   LAYER   1   ROW     7   COL     2   RATE     511.458    
 BOUNDARY     93   LAYER   1   ROW     7   COL     3   RATE     511.458    
 BOUNDARY     94   LAYER   1   ROW     7   COL     4   RATE     511.458    
 BOUNDARY     95   LAYER   1   ROW     7   COL     5   RATE     511.458    
 BOUNDARY     96   LAYER   1   ROW     7   COL     6   RATE     511.458    
 BOUNDARY     97   LAYER   1   ROW     7   COL     7   RATE     511.458    
 BOUNDARY     98   LAYER   1   ROW     7   COL     8   RATE     511.458    
 BOUNDARY     99   LAYER   1   ROW     7   COL     9   RATE     511.458    
 BOUNDARY    100   LAYER   1   ROW     7   COL    10   RATE     511.458    
 BOUNDARY    101   LAYER   1   ROW     7   COL    11   RATE     511.458    
 BOUNDARY    102   LAYER   1   ROW     7   COL    12   RATE     511.458    
 BOUNDARY    103   LAYER   1   ROW     7   COL    13   RATE     511.458    
 BOUNDARY    104   LAYER   1   ROW     7   COL    14   RATE     511.458    
 BOUNDARY    105   LAYER   1   ROW     7   COL    15   RATE     511.458    
 BOUNDARY    106   LAYER   1   ROW     8   COL     1   RATE     511.458    
 BOUNDARY    107   LAYER   1   ROW     8   COL     2   RATE     511.458    
 BOUNDARY    108   LAYER   1   ROW     8   COL     3   RATE     511.458    
 BOUNDARY    109   LAYER   1   ROW     8   COL     4   RATE     511.458    
 BOUNDARY    110   LAYER   1   ROW     8   COL     5   RATE     511.458    
 BOUNDARY    111   LAYER   1   ROW     8   COL     6   RATE     511.458    
 BOUNDARY    112   LAYER   1   ROW     8   COL     7   RATE     511.458    
 BOUNDARY    113   LAYER   1   ROW     8   COL     8   RATE     511.458    
 BOUNDARY    114   LAYER   1   ROW     8   COL     9   RATE     511.458    
 BOUNDARY    115   LAYER   1   ROW     8   COL    10   RATE     511.458    
 BOUNDARY    116   LAYER   1   ROW     8   COL    11   RATE     511.458    
 BOUNDARY    117   LAYER   1   ROW     8   COL    12   RATE     511.458    
 BOUNDARY    118   LAYER   1   ROW     8   COL    13   RATE     511.458    
 BOUNDARY    119   LAYER   1   ROW     8   COL    14   RATE     511.458    
 BOUNDARY    120   LAYER   1   ROW     8   COL    15   RATE     511.458    
 BOUNDARY    121   LAYER   1   ROW     9   COL     1   RATE     511.458    
 BOUNDARY    122   LAYER   1   ROW     9   COL     2   RATE     511.458    
 BOUNDARY    123   LAYER   1   ROW     9   COL     3   RATE     511.458    
 BOUNDARY    124   LAYER   1   ROW     9   COL     4   RATE     511.458    
 BOUNDARY    125   LAYER   1   ROW     9   COL     5   RATE     511.458    
 BOUNDARY    126   LAYER   1   ROW     9   COL     6   RATE     511.458    
 BOUNDARY    127   LAYER   1   ROW     9   COL     7   RATE     511.458    
 BOUNDARY    128   LAYER   1   ROW     9   COL     8   RATE     511.458    
 BOUNDARY    129   LAYER   1   ROW     9   COL     9   RATE     511.458    
 BOUNDARY    130   LAYER   1   ROW     9   COL    10   RATE     511.458    
 BOUNDARY    131   LAYER   1   ROW     9   COL    11   RATE     511.458    
 BOUNDARY    132   LAYER   1   ROW     9   COL    12   RATE     511.458    
 BOUNDARY    133   LAYER   1   ROW     9   COL    13   RATE     511.458    
 BOUNDARY    134   LAYER   1   ROW     9   COL    14   RATE     511.458    
 BOUNDARY    135   LAYER   1   ROW     9   COL    15   RATE     511.458    
 BOUNDARY    136   LAYER   1   ROW    10   COL     1   RATE     511.458    
 BOUNDARY    137   LAYER   1   ROW    10   COL     2   RATE     511.458    
 BOUNDARY    138   LAYER   1   ROW    10   COL     3   RATE     511.458    
 BOUNDARY    139   LAYER   1   ROW    10   COL     4   RATE     511.458    
 BOUNDARY    140   LAYER   1   ROW    10   COL     5   RATE     511.458    
 BOUNDARY    141   LAYER   1   ROW    10   COL     6   RATE     511.458    
 BOUNDARY    142   LAYER   1   ROW    10   COL     7   RATE     511.458    
 BOUNDARY    143   LAYER   1   ROW    10   COL     8   RATE     511.458    
 BOUNDARY    144   LAYER   1   ROW    10   COL     9   RATE     511.458    
 BOUNDARY    145   LAYER   1   ROW    10   COL    10   RATE     511.458    
 BOUNDARY    146   LAYER   1   ROW    10   COL    11   RATE     511.458    
 BOUNDARY    147   LAYER   1   ROW    10   COL    12   RATE     511.458    
 BOUNDARY    148   LAYER   1   ROW    10   COL    13   RATE     511.458    
 BOUNDARY    149   LAYER   1   ROW    10   COL    14   RATE     511.458    
 BOUNDARY    150   LAYER   1   ROW    10   COL    15   RATE     511.458    
 UBDSV4 SAVING ET SEGS          ON UNIT   1016 AT TIME STEP      5, STRESS PERIOD      2

 ET SEGS            PERIOD  2   STEP  5
 BOUNDARY      1   LAYER   1   ROW     1   COL     1   RATE    -2.06728    
 BOUNDARY      2   LAYER   1   ROW     1   COL     2   RATE    -8.91990    
 BOUNDARY      3   LAYER   1   ROW     1   COL     3   RATE    -47.6852    
 BOUNDARY      4   LAYER   1   ROW     1   COL     4   RATE   -100.0000    
 BOUNDARY      5   LAYER   1   ROW     1   COL     5   RATE   -100.0000    
 BOUNDARY      6   LAYER   1   ROW     1   COL     6   RATE   -100.0000    
 BOUNDARY      7   LAYER   1   ROW     1   COL     7   RATE   -100.0000    
 BOUNDARY      8   LAYER   1   ROW     1   COL     8   RATE   -100.0000    
 BOUNDARY      9   LAYER   1   ROW     1   COL     9   RATE   -100.0000    
 BOUNDARY     10   LAYER   1   ROW     1   COL    10   RATE   -100.0000    
 BOUNDARY     11   LAYER   1   ROW     1   COL    11   RATE   -100.0000    
 BOUNDARY     12   LAYER   1   ROW     1   COL    12   RATE    -16.5036    
 BOUNDARY     13   LAYER   1   ROW     1   COL    13   RATE     0.00000    
 BOUNDARY     14   LAYER   1   ROW     1   COL    14   RATE     0.00000    
 BOUNDARY     15   LAYER   1   ROW     1   COL    15   RATE     0.00000    
 BOUNDARY     16   LAYER   1   ROW     2   COL     1   RATE     0.00000    
 BOUNDARY     17   LAYER   1   ROW     2   COL     2   RATE    -4.40474    
 BOUNDARY     18   LAYER   1   ROW     2   COL     3   RATE    -27.9974    
 BOUNDARY     19   LAYER   1   ROW     2   COL     4   RATE   -100.0000    
 BOUNDARY     20   LAYER   1   ROW     2   COL     5   RATE   -100.0000    
 BOUNDARY     21   LAYER   1   ROW     2   COL     6   RATE   -100.0000    
 BOUNDARY     22   LAYER   1   ROW     2   COL     7   RATE   -100.0000    
 BOUNDARY     23   LAYER   1   ROW     2   COL     8   RATE   -100.0000    
 BOUNDARY     24   LAYER   1   ROW     2   COL     9   RATE   -100.0000    
 BOUNDARY     25   LAYER   1   ROW     2   COL    10   RATE   -100.0000    
 BOUNDARY     26   LAYER   1   ROW     2   COL    11   RATE   -100.0000    
 BOUNDARY     27   LAYER   1   ROW     2   COL    12   RATE    -18.2434    
 BOUNDARY     28   LAYER   1   ROW     2   COL    13   RATE     0.00000    
 BOUNDARY     29   LAYER   1   ROW     2   COL    14   RATE     0.00000    
 BOUNDARY     30   LAYER   1   ROW     2   COL    15   RATE     0.00000    
 BOUNDARY     31   LAYER   1   ROW     3   COL     1   RATE     0.00000    
 BOUNDARY     32   LAYER   1   ROW     3   COL     2   RATE     0.00000    
 BOUNDARY     33   LAYER   1   ROW     3   COL     3   RATE    -22.0086    
 BOUNDARY     34   LAYER   1   ROW     3   COL     4   RATE   -100.0000    
 BOUNDARY     35   LAYER   1   ROW     3   COL     5   RATE   -100.0000    
 BOUNDARY     36   LAYER   1   ROW     3   COL     6   RATE   -100.0000    
 BOUNDARY     37   LAYER   1   ROW     3   COL     7   RATE   -100.0000    
 BOUNDARY     38   LAYER   1   ROW     3   COL     8   RATE   -100.0000    
 BOUNDARY     39   LAYER   1   ROW     3   COL     9   RATE   -100.0000    
 BOUNDARY     40   LAYER   1   ROW     3   COL    10   RATE   -100.0000    
 BOUNDARY     41   LAYER   1   ROW     3   COL    11   RATE   -100.0000    
 BOUNDARY     42   LAYER   1   ROW     3   COL    12   RATE    -21.1777    
 BOUNDARY     43   LAYER   1   ROW     3   COL    13   RATE    -1.78665    
 BOUNDARY     44   LAYER   1   ROW     3   COL    14   RATE     0.00000    
 BOUNDARY     45   LAYER   1   ROW     3   COL    15   RATE     0.00000    
 BOUNDARY     46   LAYER   1   ROW     4   COL     1   RATE     0.00000    
 BOUNDARY     47   LAYER   1   ROW     4   COL     2   RATE    -2.89082    
 BOUNDARY     48   LAYER   1   ROW     4   COL     3   RATE    -25.8736    
 BOUNDARY     49   LAYER   1   ROW     4   COL     4   RATE   -100.0000    
 BOUNDARY     50   LAYER   1   ROW     4   COL     5   RATE   -100.0000    
 BOUNDARY     51   LAYER   1   ROW     4   COL     6   RATE   -100.0000    
 BOUNDARY     52   LAYER   1   ROW     4   COL     7   RATE   -100.0000    
 BOUNDARY     53   LAYER   1   ROW     4   COL     8   RATE   -100.0000    
 BOUNDARY     54   LAYER   1   ROW     4   COL     9   RATE   -100.0000    
 BOUNDARY     55   LAYER   1   ROW     4   COL    10   RATE   -100.0000    
 BOUNDARY     56   LAYER   1   ROW     4   COL    11   RATE   -100.0000    
 BOUNDARY     57   LAYER   1   ROW     4   COL    12   RATE    -23.9789    
 BOUNDARY     58   LAYER   1   ROW     4   COL    13   RATE    -3.25298    
 BOUNDARY     59   LAYER   1   ROW     4   COL    14   RATE     0.00000    
 BOUNDARY     60   LAYER   1   ROW     4   COL    15   RATE     0.00000    
 BOUNDARY     61   LAYER   1   ROW     5   COL     1   RATE     0.00000    
 BOUNDARY     62   LAYER   1   ROW     5   COL     2   RATE    -5.86409    
 BOUNDARY     63   LAYER   1   ROW     5   COL     3   RATE    -29.8611    
 BOUNDARY     64   LAYER   1   ROW     5   COL     4   RATE   -100.0000    
 BOUNDARY     65   LAYER   1   ROW     5   COL     5   RATE   -100.0000    
 BOUNDARY     66   LAYER   1   ROW     5   COL     6   RATE   -100.0000    
 BOUNDARY     67   LAYER   1   ROW     5   COL     7   RATE   -100.0000    
 BOUNDARY     68   LAYER   1   ROW     5   COL     8   RATE   -100.0000    
 BOUNDARY     69   LAYER   1   ROW     5   COL     9   RATE   -100.0000    
 BOUNDARY     70   LAYER   1   ROW     5   COL    10   RATE   -100.0000    
 BOUNDARY     71   LAYER   1   ROW     5   COL    11   RATE   -100.0000    
 BOUNDARY     72   LAYER   1   ROW     5   COL    12   RATE    -25.9213    
 BOUNDARY     73   LAYER   1   ROW     5   COL    13   RATE    -4.17336    
 BOUNDARY     74   LAYER   1   ROW     5   COL    14   RATE     0.00000    
 BOUNDARY     75   LAYER   1   ROW     5   COL    15   RATE     0.00000    
 BOUNDARY     76   LAYER   1   ROW     6   COL     1   RATE     0.00000    
 BOUNDARY     77   LAYER   1   ROW     6   COL     2   RATE    -4.43611    
 BOUNDARY     78   LAYER   1   ROW     6   COL     3   RATE    -33.1417    
 BOUNDARY     79   LAYER   1   ROW     6   COL     4   RATE   -100.0000    
 BOUNDARY     80   LAYER   1   ROW     6   COL     5   RATE   -100.0000    
 BOUNDARY     81   LAYER   1   ROW     6   COL     6   RATE   -100.0000    
 BOUNDARY     82   LAYER   1   ROW     6   COL     7   RATE   -100.0000    
 BOUNDARY     83   LAYER   1   ROW     6   COL     8   RATE   -100.0000    
 BOUNDARY     84   LAYER   1   ROW     6   COL     9   RATE   -100.0000    
 BOUNDARY     85   LAYER   1   ROW     6   COL    10   RATE   -100.0000    
 BOUNDARY     86   LAYER   1   ROW     6   COL    11   RATE   -100.0000    
 BOUNDARY     87   LAYER   1   ROW     6   COL    12   RATE    -26.5706    
 BOUNDARY     88   LAYER   1   ROW     6   COL    13   RATE    -4.13324    
 BOUNDARY     89   LAYER   1   ROW     6   COL    14   RATE     0.00000    
 BOUNDARY     90   LAYER   1   ROW     6   COL    15   RATE     0.00000    
 BOUNDARY     91   LAYER   1   ROW     7   COL     1   RATE     0.00000    
 BOUNDARY     92   LAYER   1   ROW     7   COL     2   RATE   -0.944232    
 BOUNDARY     93   LAYER   1   ROW     7   COL     3   RATE    -40.0285    
 BOUNDARY     94   LAYER   1   ROW     7   COL     4   RATE   -100.0000    
 BOUNDARY     95   LAYER   1   ROW     7   COL     5   RATE   -100.0000    
 BOUNDARY     96   LAYER   1   ROW     7   COL     6   RATE   -100.0000    
 BOUNDARY     97   LAYER   1   ROW     7   COL     7   RATE   -100.0000    
 BOUNDARY     98   LAYER   1   ROW     7   COL     8   RATE   -100.0000    
 BOUNDARY     99   LAYER   1   ROW     7   COL     9   RATE   -100.0000    
 BOUNDARY    100   LAYER   1   ROW     7   COL    10   RATE   -100.0000    
 BOUNDARY    101   LAYER   1   ROW     7   COL    11   RATE   -100.0000    
 BOUNDARY    102   LAYER   1   ROW     7   COL    12   RATE    -26.4051    
 BOUNDARY    103   LAYER   1   ROW     7   COL    13   RATE    -3.39441    
 BOUNDARY    104   LAYER   1   ROW     7   COL    14   RATE     0.00000    
 BOUNDARY    105   LAYER   1   ROW     7   COL    15   RATE     0.00000    
 BOUNDARY    106   LAYER   1   ROW     8   COL     1   RATE     0.00000    
 BOUNDARY    107   LAYER   1   ROW     8   COL     2   RATE    -10.9997    
 BOUNDARY    108   LAYER   1   ROW     8   COL     3   RATE   -100.0000    
 BOUNDARY    109   LAYER   1   ROW     8   COL     4   RATE   -100.0000    
 BOUNDARY    110   LAYER   1   ROW     8   COL     5   RATE   -100.0000    
 BOUNDARY    111   LAYER   1   ROW     8   COL     6   RATE   -100.0000    
 BOUNDARY    112   LAYER   1   ROW     8   COL     7   RATE   -100.0000    
 BOUNDARY    113   LAYER   1   ROW     8   COL     8   RATE   -100.0000    
 BOUNDARY    114   LAYER   1   ROW     8   COL     9   RATE   -100.0000    
 BOUNDARY    115   LAYER   1   ROW     8   COL    10   RATE   -100.0000    
 BOUNDARY    116   LAYER   1   ROW     8   COL    11   RATE   -100.0000    
 BOUNDARY    117   LAYER   1   ROW     8   COL    12   RATE    -26.7901    
 BOUNDARY    118   LAYER   1   ROW     8   COL    13   RATE    -3.39317    
 BOUNDARY    119   LAYER   1   ROW     8   COL    14   RATE     0.00000    
 BOUNDARY    120   LAYER   1   ROW     8   COL    15   RATE     0.00000    
 BOUNDARY    121   LAYER   1   ROW     9   COL     1   RATE    -18.5779    
 BOUNDARY    122   LAYER   1   ROW     9   COL     2   RATE    -59.1133    
 BOUNDARY    123   LAYER   1   ROW     9   COL     3   RATE   -100.0000    
 BOUNDARY    124   LAYER   1   ROW     9   COL     4   RATE   -100.0000    
 BOUNDARY    125   LAYER   1   ROW     9   COL     5   RATE   -100.0000    
 BOUNDARY    126   LAYER   1   ROW     9   COL     6   RATE   -100.0000    
 BOUNDARY    127   LAYER   1   ROW     9   COL     7   RATE   -100.0000    
 BOUNDARY    128   LAYER   1   ROW     9   COL     8   RATE   -100.0000    
 BOUNDARY    129   LAYER   1   ROW     9   COL     9   RATE   -100.0000    
 BOUNDARY    130   LAYER   1   ROW     9   COL    10   RATE   -100.0000    
 BOUNDARY    131   LAYER   1   ROW     9   COL    11   RATE   -100.0000    
 BOUNDARY    132   LAYER   1   ROW     9   COL    12   RATE    -27.8838    
 BOUNDARY    133   LAYER   1   ROW     9   COL    13   RATE    -4.20395    
 BOUNDARY    134   LAYER   1   ROW     9   COL    14   RATE     0.00000    
 BOUNDARY    135   LAYER   1   ROW     9   COL    15   RATE     0.00000    
 BOUNDARY    136   LAYER   1   ROW    10   COL     1   RATE    -67.3268    
 BOUNDARY    137   LAYER   1   ROW    10   COL     2   RATE   -100.0000    
 BOUNDARY    138   LAYER   1   ROW    10   COL     3   RATE   -100.0000    
 BOUNDARY    139   LAYER   1   ROW    10   COL     4   RATE   -100.0000    
 BOUNDARY    140   LAYER   1   ROW    10   COL     5   RATE   -100.0000    
 BOUNDARY    141   LAYER   1   ROW    10   COL     6   RATE   -100.0000    
 BOUNDARY    142   LAYER   1   ROW    10   COL     7   RATE   -100.0000    
 BOUNDARY    143   LAYER   1   ROW    10   COL     8   RATE   -100.0000    
 BOUNDARY    144   LAYER   1   ROW    10   COL     9   RATE   -100.0000    
 BOUNDARY    145   LAYER   1   ROW    10   COL    10   RATE   -100.0000    
 BOUNDARY    146   LAYER   1   ROW    10   COL    11   RATE   -100.0000    
 BOUNDARY    147   LAYER   1   ROW    10   COL    12   RATE    -28.6776    
 BOUNDARY    148   LAYER   1   ROW    10   COL    13   RATE    -4.72865    
 BOUNDARY    149   LAYER   1   ROW    10   COL    14   RATE     0.00000    
 BOUNDARY    150   LAYER   1   ROW    10   COL    15   RATE     0.00000    

 HEAD WILL BE SAVED ON UNIT 1017 AT END OF TIME STEP    5, STRESS PERIOD    2
WEL   no.    1 value from time series:   0.0000     for time:  6.000     to  7.000    
WEL   no.    2 value from time series:   0.0000     for time:  6.000     to  7.000    
RIV   no.    1 value from time series:   102.83     for time:  6.000     to  7.000    
RIV   no.    2 value from time series:   102.83     for time:  6.000     to  7.000    
RIV   no.    3 value from time series:   112.98     for time:  6.000     to  7.000    
RIV   no.    4 value from time series:   112.98     for time:  6.000     to  7.000    
RIV   no.    5 value from time series:   115.62     for time:  6.000     to  7.000    
RIV   no.    6 value from time series:   115.62     for time:  6.000     to  7.000    
RIV   no.    7 value from time series:   105.02     for time:  6.000     to  7.000    
RIV   no.    8 value from time series:   105.02     for time:  6.000     to  7.000    
RIV   no.    9 value from time series:   115.10     for time:  6.000     to  7.000    
RIV   no.   10 value from time series:   115.10     for time:  6.000     to  7.000    
WEL   no.    1 value from time series:   0.0000     for time:  6.000     to  7.000    
WEL   no.    2 value from time series:   0.0000     for time:  6.000     to  7.000    
RIV   no.    1 value from time series:   102.83     for time:  6.000     to  7.000    
RIV   no.    2 value from time series:   102.83     for time:  6.000     to  7.000    
RIV   no.    3 value from time series:   112.98     for time:  6.000     to  7.000    
RIV   no.    4 value from time series:   112.98     for time:  6.000     to  7.000    
RIV   no.    5 value from time series:   115.62     for time:  6.000     to  7.000    
RIV   no.    6 value from time series:   115.62     for time:  6.000     to  7.000    
RIV   no.    7 value from time series:   105.02     for time:  6.000     to  7.000    
RIV   no.    8 value from time series:   105.02     for time:  6.000     to  7.000    
RIV   no.    9 value from time series:   115.10     for time:  6.000     to  7.000    
RIV   no.   10 value from time series:   115.10     for time:  6.000     to  7.000    

 OUTPUT CONTROL FOR STRESS PERIOD    2   TIME STEP    6
    SAVE BUDGET
    SAVE HEAD
    SAVE HEAD FOR ALL LAYERS
 UBDSV1 SAVING          STORAGE ON UNIT   1016 AT TIME STEP      6, STRESS PERIOD      2
 UBDSV1 SAVING FLOW RIGHT FACE  ON UNIT   1016 AT TIME STEP      6, STRESS PERIOD      2
 UBDSV1 SAVING FLOW FRONT FACE  ON UNIT   1016 AT TIME STEP      6, STRESS PERIOD      2
 UBDSV1 SAVING FLOW LOWER FACE  ON UNIT   1016 AT TIME STEP      6, STRESS PERIOD      2
 UBDSV4 SAVING WELLS NEAR RIVER ON UNIT   1016 AT TIME STEP      6, STRESS PERIOD      2

 WELLS NEAR RIVER   PERIOD  2   STEP  6
 BOUNDARY      1   LAYER   2   ROW     3   COL     4   RATE     0.00000      WELL_1
 BOUNDARY      2   LAYER   2   ROW     8   COL     4   RATE     0.00000      WELL_2
 BOUNDARY      3   LAYER   2   ROW     4   COL     6   RATE   -10.00000    
 BOUNDARY      4   LAYER   2   ROW     5   COL     8   RATE    -20.0000    
 BOUNDARY      5   LAYER   2   ROW     2   COL     9   RATE    -40.0000    
 UBDSV4 SAVING RIVER            ON UNIT   1016 AT TIME STEP      6, STRESS PERIOD      2

 RIVER              PERIOD  2   STEP  6
 BOUNDARY      1   LAYER   1   ROW     1   COL    15   RATE    -3317.10    
 BOUNDARY      2   LAYER   1   ROW     2   COL    15   RATE    -4411.30      RIV2
 BOUNDARY      3   LAYER   1   ROW     3   COL    15   RATE    -710.755      RIV3
 BOUNDARY      4   LAYER   1   ROW     4   COL    15   RATE    -2190.92    
 BOUNDARY      5   LAYER   1   ROW     5   COL    15   RATE    -1925.79    
 BOUNDARY      6   LAYER   1   ROW     6   COL    15   RATE    -1303.84    
 BOUNDARY      7   LAYER   1   ROW     7   COL    15   RATE    -5371.93      RIVX
 BOUNDARY      8   LAYER   1   ROW     8   COL    15   RATE    -5146.18      RIVX
 BOUNDARY      9   LAYER   1   ROW     9   COL    15   RATE    -414.874      RIVX
 BOUNDARY     10   LAYER   1   ROW    10   COL    15   RATE    -1263.41    

 GHB LAKES          PERIOD  2   STEP  6
 BOUNDARY      1   LAYER   1   ROW     3   COL     1   RATE    -14419.1    
 BOUNDARY      2   LAYER   1   ROW     7   COL     1   RATE    -1820.81      GHB2_UPPER
 BOUNDARY      3   LAYER   1   ROW     7   COL     1   RATE    -13202.0      GHB2_LOWER
 UBDSV4 SAVING RECHARGE         ON UNIT   1016 AT TIME STEP      6, STRESS PERIOD      2

 RECHARGE           PERIOD  2   STEP  6
 BOUNDARY      1   LAYER   1   ROW     1   COL     1   RATE     513.542    
 BOUNDARY      2   LAYER   1   ROW     1   COL     2   RATE     513.542    
 BOUNDARY      3   LAYER   1   ROW     1   COL     3   RATE     513.542    
 BOUNDARY      4   LAYER   1   ROW     1   COL     4   RATE     513.542    
 BOUNDARY      5   LAYER   1   ROW     1   COL     5   RATE     513.542    
 BOUNDARY      6   LAYER   1   ROW     1   COL     6   RATE     513.542    
 BOUNDARY      7   LAYER   1   ROW     1   COL     7   RATE     513.542    
 BOUNDARY      8   LAYER   1   ROW     1   COL     8   RATE     513.542    
 BOUNDARY      9   LAYER   1   ROW     1   COL     9   RATE     513.542    
 BOUNDARY     10   LAYER   1   ROW     1   COL    10   RATE     513.542    
 BOUNDARY     11   LAYER   1   ROW     1   COL    11   RATE     513.542    
 BOUNDARY     12   LAYER   1   ROW     1   COL    12   RATE     513.542    
 BOUNDARY     13   LAYER   1   ROW     1   COL    13   RATE     513.542    
 BOUNDARY     14   LAYER   1   ROW     1   COL    14   RATE     513.542    
 BOUNDARY     15   LAYER   1   ROW     1   COL    15   RATE     513.542    
 BOUNDARY     16   LAYER   1   ROW     2   COL     1   RATE     513.542    
 BOUNDARY     17   LAYER   1   ROW     2   COL     2   RATE     513.542    
 BOUNDARY     18   LAYER   1   ROW     2   COL     3   RATE     513.542    
 BOUNDARY     19   LAYER   1   ROW     2   COL     4   RATE     513.542    
 BOUNDARY     20   LAYER   1   ROW     2   COL     5   RATE     513.542    
 BOUNDARY     21   LAYER   1   ROW     2   COL     6   RATE     513.542    
 BOUNDARY     22   LAYER   1   ROW     2   COL     7   RATE     513.542    
 BOUNDARY     23   LAYER   1   ROW     2   COL     8   RATE     513.542    
 BOUNDARY     24   LAYER   1   ROW     2   COL     9   RATE     513.542    
 BOUNDARY     25   LAYER   1   ROW     2   COL    10   RATE     513.542    
 BOUNDARY     26   LAYER   1   ROW     2   COL    11   RATE     513.542    
 BOUNDARY     27   LAYER   1   ROW     2   COL    12   RATE     513.542    
 BOUNDARY     28   LAYER   1   ROW     2   COL    13   RATE     513.542    
 BOUNDARY     29   LAYER   1   ROW     2   COL    14   RATE     513.542    
 BOUNDARY     30   LAYER   1   ROW     2   COL    15   RATE     513.542    
 BOUNDARY     31   LAYER   1   ROW     3   COL     1   RATE     513.542    
 BOUNDARY     32   LAYER   1   ROW     3   COL     2   RATE     513.542    
 BOUNDARY     33   LAYER   1   ROW     3   COL     3   RATE     513.542    
 BOUNDARY     34   LAYER   1   ROW     3   COL     4   RATE     513.542    
 BOUNDARY     35   LAYER   1   ROW     3   COL     5   RATE     513.542    
 BOUNDARY     36   LAYER   1   ROW     3   COL     6   RATE     513.542    
 BOUNDARY     37   LAYER   1   ROW     3   COL     7   RATE     513.542    
 BOUNDARY     38   LAYER   1   ROW     3   COL     8   RATE     513.542    
 BOUNDARY     39   LAYER   1   ROW     3   COL     9   RATE     513.542    
 BOUNDARY     40   LAYER   1   ROW     3   COL    10   RATE     513.542    
 BOUNDARY     41   LAYER   1   ROW     3   COL    11   RATE     513.542    
 BOUNDARY     42   LAYER   1   ROW     3   COL    12   RATE     513.542    
 BOUNDARY     43   LAYER   1   ROW     3   COL    13   RATE     513.542    
 BOUNDARY     44   LAYER   1   ROW     3   COL    14   RATE     513.542    
 BOUNDARY     45   LAYER   1   ROW     3   COL    15   RATE     513.542    
 BOUNDARY     46   LAYER   1   ROW     4   COL     1   RATE     513.542    
 BOUNDARY     47   LAYER   1   ROW     4   COL     2   RATE     513.542    
 BOUNDARY     48   LAYER   1   ROW     4   COL     3   RATE     513.542    
 BOUNDARY     49   LAYER   1   ROW     4   COL     4   RATE     513.542    
 BOUNDARY     50   LAYER   1   ROW     4   COL     5   RATE     513.542    
 BOUNDARY     51   LAYER   1   ROW     4   COL     6   RATE     513.542    
 BOUNDARY     52   LAYER   1   ROW     4   COL     7   RATE     513.542    
 BOUNDARY     53   LAYER   1   ROW     4   COL     8   RATE     513.542    
 BOUNDARY     54   LAYER   1   ROW     4   COL     9   RATE     513.542    
 BOUNDARY     55   LAYER   1   ROW     4   COL    10   RATE     513.542    
 BOUNDARY     56   LAYER   1   ROW     4   COL    11   RATE     513.542    
 BOUNDARY     57   LAYER   1   ROW     4   COL    12   RATE     513.542    
 BOUNDARY     58   LAYER   1   ROW     4   COL    13   RATE     513.542    
 BOUNDARY     59   LAYER   1   ROW     4   COL    14   RATE     513.542    
 BOUNDARY     60   LAYER   1   ROW     4   COL    15   RATE     513.542    
 BOUNDARY     61   LAYER   1   ROW     5   COL     1   RATE     513.542    
 BOUNDARY     62   LAYER   1   ROW     5   COL     2   RATE     513.542    
 BOUNDARY     63   LAYER   1   ROW     5   COL     3   RATE     513.542    
 BOUNDARY     64   LAYER   1   ROW     5   COL     4   RATE     513.542    
 BOUNDARY     65   LAYER   1   ROW     5   COL     5   RATE     513.542    
 BOUNDARY     66   LAYER   1   ROW     5   COL     6   RATE     513.542    
 BOUNDARY     67   LAYER   1   ROW     5   COL     7   RATE     513.542    
 BOUNDARY     68   LAYER   1   ROW     5   COL     8   RATE     513.542    
 BOUNDARY     69   LAYER   1   ROW     5   COL     9   RATE     513.542    
 BOUNDARY     70   LAYER   1   ROW     5   COL    10   RATE     513.542    
 BOUNDARY     71   LAYER   1   ROW     5   COL    11   RATE     513.542    
 BOUNDARY     72   LAYER   1   ROW     5   COL    12   RATE     513.542    
 BOUNDARY     73   LAYER   1   ROW     5   COL    13   RATE     513.542    
 BOUNDARY     74   LAYER   1   ROW     5   COL    14   RATE     513.542    
 BOUNDARY     75   LAYER   1   ROW     5   COL    15   RATE     513.542    
 BOUNDARY     76   LAYER   1   ROW     6   COL     1   RATE     513.542    
 BOUNDARY     77   LAYER   1   ROW     6   COL     2   RATE     513.542    
 BOUNDARY     78   LAYER   1   ROW     6   COL     3   RATE     513.542    
 BOUNDARY     79   LAYER   1   ROW     6   COL     4   RATE     513.542    
 BOUNDARY     80   LAYER   1   ROW     6   COL     5   RATE     513.542    
 BOUNDARY     81   LAYER   1   ROW     6   COL     6   RATE     513.542    
 BOUNDARY     82   LAYER   1   ROW     6   COL     7   RATE     513.542    
 BOUNDARY     83   LAYER   1   ROW     6   COL     8   RATE     513.542    
 BOUNDARY     84   LAYER   1   ROW     6   COL     9   RATE     513.542    
 BOUNDARY     85   LAYER   1   ROW     6   COL    10   RATE     513.542    
 BOUNDARY     86   LAYER   1   ROW     6   COL    11   RATE     513.542    
 BOUNDARY     87   LAYER   1   ROW     6   COL    12   RATE     513.542    
 BOUNDARY     88   LAYER   1   ROW     6   COL    13   RATE     513.542    
 BOUNDARY     89   LAYER   1   ROW     6   COL    14   RATE     513.542    
 BOUNDARY     90   LAYER   1   ROW     6   COL    15   RATE     513.542    
 BOUNDARY     91   LAYER   1   ROW     7   COL     1   RATE     513.542    
 BOUNDARY     92   LAYER   1   ROW     7   COL     2   RATE     513.542    
 BOUNDARY     93   LAYER   1   ROW     7   COL     3   RATE     513.542    
 BOUNDARY     94   LAYER   1   ROW     7   COL     4   RATE     513.542    
 BOUNDARY     95   LAYER   1   ROW     7   COL     5   RATE     513.542    
 BOUNDARY     96   LAYER   1   ROW     7   COL     6   RATE     513.542    
 BOUNDARY     97   LAYER   1   ROW     7   COL     7   RATE     513.542    
 BOUNDARY     98   LAYER   1   ROW     7   COL     8   RATE     513.542    
 BOUNDARY     99   LAYER   1   ROW     7   COL     9   RATE     513.542    
 BOUNDARY    100   LAYER   1   ROW     7   COL    10   RATE     513.542    
 BOUNDARY    101   LAYER   1   ROW     7   COL    11   RATE     513.542    
 BOUNDARY    102   LAYER   1   ROW     7   COL    12   RATE     513.542    
 BOUNDARY    103   LAYER   1   ROW     7   COL    13   RATE     513.542    
 BOUNDARY    104   LAYER   1   ROW     7   COL    14   RATE     513.542    
 BOUNDARY    105   LAYER   1   ROW     7   COL    15   RATE     513.542    
 BOUNDARY    106   LAYER   1   ROW     8   COL     1   RATE     513.542    
 BOUNDARY    107   LAYER   1   ROW     8   COL     2   RATE     513.542    
 BOUNDARY    108   LAYER   1   ROW     8   COL     3   RATE     513.542    
 BOUNDARY    109   LAYER   1   ROW     8   COL     4   RATE     513.542    
 BOUNDARY    110   LAYER   1   ROW     8   COL     5   RATE     513.542    
 BOUNDARY    111   LAYER   1   ROW     8   COL     6   RATE     513.542    
 BOUNDARY    112   LAYER   1   ROW     8   COL     7   RATE     513.542    
 BOUNDARY    113   LAYER   1   ROW     8   COL     8   RATE     513.542    
 BOUNDARY    114   LAYER   1   ROW     8   COL     9   RATE     513.542    
 BOUNDARY    115   LAYER   1   ROW     8   COL    10   RATE     513.542    
 BOUNDARY    116   LAYER   1   ROW     8   COL    11   RATE     513.542    
 BOUNDARY    117   LAYER   1   ROW     8   COL    12   RATE     513.542    
 BOUNDARY    118   LAYER   1   ROW     8   COL    13   RATE     513.542    
 BOUNDARY    119   LAYER   1   ROW     8   COL    14   RATE     513.542    
 BOUNDARY    120   LAYER   1   ROW     8   COL    15   RATE     513.542    
 BOUNDARY    121   LAYER   1   ROW     9   COL     1   RATE     513.542    
 BOUNDARY    122   LAYER   1   ROW     9   COL     2   RATE     513.542    
 BOUNDARY    123   LAYER   1   ROW     9   COL     3   RATE     513.542    
 BOUNDARY    124   LAYER   1   ROW     9   COL     4   RATE     513.542    
 BOUNDARY    125   LAYER   1   ROW     9   COL     5   RATE     513.542    
 BOUNDARY    126   LAYER   1   ROW     9   COL     6   RATE     513.542    
 BOUNDARY    127   LAYER   1   ROW     9   COL     7   RATE     513.542    
 BOUNDARY    128   LAYER   1   ROW     9   COL     8   RATE     513.542    
 BOUNDARY    129   LAYER   1   ROW     9   COL     9   RATE     513.542    
 BOUNDARY    130   LAYER   1   ROW     9   COL    10   RATE     513.542    
 BOUNDARY    131   LAYER   1   ROW     9   COL    11   RATE     513.542    
 BOUNDARY    132   LAYER   1   ROW     9   COL    12   RATE     513.542    
 BOUNDARY    133   LAYER   1   ROW     9   COL    13   RATE     513.542    
 BOUNDARY    134   LAYER   1   ROW     9   COL    14   RATE     513.542    
 BOUNDARY    135   LAYER   1   ROW     9   COL    15   RATE     513.542    
 BOUNDARY    136   LAYER   1   ROW    10   COL     1   RATE     513.542    
 BOUNDARY    137   LAYER   1   ROW    10   COL     2   RATE     513.542    
 BOUNDARY    138   LAYER   1   ROW    10   COL     3   RATE     513.542    
 BOUNDARY    139   LAYER   1   ROW    10   COL     4   RATE     513.542    
 BOUNDARY    140   LAYER   1   ROW    10   COL     5   RATE     513.542    
 BOUNDARY    141   LAYER   1   ROW    10   COL     6   RATE     513.542    
 BOUNDARY    142   LAYER   1   ROW    10   COL     7   RATE     513.542    
 BOUNDARY    143   LAYER   1   ROW    10   COL     8   RATE     513.542    
 BOUNDARY    144   LAYER   1   ROW    10   COL     9   RATE     513.542    
 BOUNDARY    145   LAYER   1   ROW    10   COL    10   RATE     513.542    
 BOUNDARY    146   LAYER   1   ROW    10   COL    11   RATE     513.542    
 BOUNDARY    147   LAYER   1   ROW    10   COL    12   RATE     513.542    
 BOUNDARY    148   LAYER   1   ROW    10   COL    13   RATE     513.542    
 BOUNDARY    149   LAYER   1   ROW    10   COL    14   RATE     513.542    
 BOUNDARY    150   LAYER   1   ROW    10   COL    15   RATE     513.542    
 UBDSV4 SAVING ET SEGS          ON UNIT   1016 AT TIME STEP      6, STRESS PERIOD      2

 ET SEGS            PERIOD  2   STEP  6
 BOUNDARY      1   LAYER   1   ROW     1   COL     1   RATE    -2.06827    
 BOUNDARY      2   LAYER   1   ROW     1   COL     2   RATE    -8.92090    
 BOUNDARY      3   LAYER   1   ROW     1   COL     3   RATE    -47.7025    
 BOUNDARY      4   LAYER   1   ROW     1   COL     4   RATE   -100.0000    
 BOUNDARY      5   LAYER   1   ROW     1   COL     5   RATE   -100.0000    
 BOUNDARY      6   LAYER   1   ROW     1   COL     6   RATE   -100.0000    
 BOUNDARY      7   LAYER   1   ROW     1   COL     7   RATE   -100.0000    
 BOUNDARY      8   LAYER   1   ROW     1   COL     8   RATE   -100.0000    
 BOUNDARY      9   LAYER   1   ROW     1   COL     9   RATE   -100.0000    
 BOUNDARY     10   LAYER   1   ROW     1   COL    10   RATE   -100.0000    
 BOUNDARY     11   LAYER   1   ROW     1   COL    11   RATE   -100.0000    
 BOUNDARY     12   LAYER   1   ROW     1   COL    12   RATE    -16.5069    
 BOUNDARY     13   LAYER   1   ROW     1   COL    13   RATE     0.00000    
 BOUNDARY     14   LAYER   1   ROW     1   COL    14   RATE     0.00000    
 BOUNDARY     15   LAYER   1   ROW     1   COL    15   RATE     0.00000    
 BOUNDARY     16   LAYER   1   ROW     2   COL     1   RATE     0.00000    
 BOUNDARY     17   LAYER   1   ROW     2   COL     2   RATE    -4.40574    
 BOUNDARY     18   LAYER   1   ROW     2   COL     3   RATE    -28.0007    
 BOUNDARY     19   LAYER   1   ROW     2   COL     4   RATE   -100.0000    
 BOUNDARY     20   LAYER   1   ROW     2   COL     5   RATE   -100.0000    
 BOUNDARY     21   LAYER   1   ROW     2   COL     6   RATE   -100.0000    
 BOUNDARY     22   LAYER   1   ROW     2   COL     7   RATE   -100.0000    
 BOUNDARY     23   LAYER   1   ROW     2   COL     8   RATE   -100.0000    
 BOUNDARY     24   LAYER   1   ROW     2   COL     9   RATE   -100.0000    
 BOUNDARY     25   LAYER   1   ROW     2   COL    10   RATE   -100.0000    
 BOUNDARY     26   LAYER   1   ROW     2   COL    11   RATE   -100.0000    
 BOUNDARY     27   LAYER   1   ROW     2   COL    12   RATE    -18.2467    
 BOUNDARY     28   LAYER   1   ROW     2   COL    13   RATE   -2.045927E-04
 BOUNDARY     29   LAYER   1   ROW     2   COL    14   RATE     0.00000    
 BOUNDARY     30   LAYER   1   ROW     2   COL    15   RATE     0.00000    
 BOUNDARY     31   LAYER   1   ROW     3   COL     1   RATE     0.00000    
 BOUNDARY     32   LAYER   1   ROW     3   COL     2   RATE     0.00000    
 BOUNDARY     33   LAYER   1   ROW     3   COL     3   RATE    -22.0119    
 BOUNDARY     34   LAYER   1   ROW     3   COL     4   RATE   -100.0000    
 BOUNDARY     35   LAYER   1   ROW     3   COL     5   RATE   -100.0000    
 BOUNDARY     36   LAYER   1   ROW     3   COL     6   RATE   -100.0000    
 BOUNDARY     37   LAYER   1   ROW     3   COL     7   RATE   -100.0000    
 BOUNDARY     38   LAYER   1   ROW     3   COL     8   RATE   -100.0000    
 BOUNDARY     39   LAYER   1   ROW     3   COL     9   RATE   -100.0000    
 BOUNDARY     40   LAYER   1   ROW     3   COL    10   RATE   -100.0000    
 BOUNDARY     41   LAYER   1   ROW     3   COL    11   RATE   -100.0000    
 BOUNDARY     42   LAYER   1   ROW     3   COL    12   RATE    -21.1810    
 BOUNDARY     43   LAYER   1   ROW     3   COL    13   RATE    -1.78784    
 BOUNDARY     44   LAYER   1   ROW     3   COL    14   RATE     0.00000    
 BOUNDARY     45   LAYER   1   ROW     3   COL    15   RATE     0.00000    
 BOUNDARY     46   LAYER   1   ROW     4   COL     1   RATE     0.00000    
 BOUNDARY     47   LAYER   1   ROW     4   COL     2   RATE    -2.89181    
 BOUNDARY     48   LAYER   1   ROW     4   COL     3   RATE    -25.8769    
 BOUNDARY     49   LAYER   1   ROW     4   COL     4   RATE   -100.0000    
 BOUNDARY     50   LAYER   1   ROW     4   COL     5   RATE   -100.0000    
 BOUNDARY     51   LAYER   1   ROW     4   COL     6   RATE   -100.0000    
 BOUNDARY     52   LAYER   1   ROW     4   COL     7   RATE   -100.0000    
 BOUNDARY     53   LAYER   1   ROW     4   COL     8   RATE   -100.0000    
 BOUNDARY     54   LAYER   1   ROW     4   COL     9   RATE   -100.0000    
 BOUNDARY     55   LAYER   1   ROW     4   COL    10   RATE   -100.0000    
 BOUNDARY     56   LAYER   1   ROW     4   COL    11   RATE   -100.0000    
 BOUNDARY     57   LAYER   1   ROW     4   COL    12   RATE    -23.9822    
 BOUNDARY     58   LAYER   1   ROW     4   COL    13   RATE    -3.25416    
 BOUNDARY     59   LAYER   1   ROW     4   COL    14   RATE     0.00000    
 BOUNDARY     60   LAYER   1   ROW     4   COL    15   RATE     0.00000    
 BOUNDARY     61   LAYER   1   ROW     5   COL     1   RATE     0.00000    
 BOUNDARY     62   LAYER   1   ROW     5   COL     2   RATE    -5.86509    
 BOUNDARY     63   LAYER   1   ROW     5   COL     3   RATE    -29.8644    
 BOUNDARY     64   LAYER   1   ROW     5   COL     4   RATE   -100.0000    
 BOUNDARY     65   LAYER   1   ROW     5   COL     5   RATE   -100.0000    
 BOUNDARY     66   LAYER   1   ROW     5   COL     6   RATE   -100.0000    
 BOUNDARY     67   LAYER   1   ROW     5   COL     7   RATE   -100.0000    
 BOUNDARY     68   LAYER   1   ROW     5   COL     8   RATE   -100.0000    
 BOUNDARY     69   LAYER   1   ROW     5   COL     9   RATE   -100.0000    
 BOUNDARY     70   LAYER   1   ROW     5   COL    10   RATE   -100.0000    
 BOUNDARY     71   LAYER   1   ROW     5   COL    11   RATE   -100.0000    
 BOUNDARY     72   LAYER   1   ROW     5   COL    12   RATE    -25.9247    
 BOUNDARY     73   LAYER   1   ROW     5   COL    13   RATE    -4.17448    
 BOUNDARY     74   LAYER   1   ROW     5   COL    14   RATE     0.00000    
 BOUNDARY     75   LAYER   1   ROW     5   COL    15   RATE     0.00000    
 BOUNDARY     76   LAYER   1   ROW     6   COL     1   RATE     0.00000    
 BOUNDARY     77   LAYER   1   ROW     6   COL     2   RATE    -4.43709    
 BOUNDARY     78   LAYER   1   ROW     6   COL     3   RATE    -33.1590    
 BOUNDARY     79   LAYER   1   ROW     6   COL     4   RATE   -100.0000    
 BOUNDARY     80   LAYER   1   ROW     6   COL     5   RATE   -100.0000    
 BOUNDARY     81   LAYER   1   ROW     6   COL     6   RATE   -100.0000    
 BOUNDARY     82   LAYER   1   ROW     6   COL     7   RATE   -100.0000    
 BOUNDARY     83   LAYER   1   ROW     6   COL     8   RATE   -100.0000    
 BOUNDARY     84   LAYER   1   ROW     6   COL     9   RATE   -100.0000    
 BOUNDARY     85   LAYER   1   ROW     6   COL    10   RATE   -100.0000    
 BOUNDARY     86   LAYER   1   ROW     6   COL    11   RATE   -100.0000    
 BOUNDARY     87   LAYER   1   ROW     6   COL    12   RATE    -26.5739    
 BOUNDARY     88   LAYER   1   ROW     6   COL    13   RATE    -4.13437    
 BOUNDARY     89   LAYER   1   ROW     6   COL    14   RATE     0.00000    
 BOUNDARY     90   LAYER   1   ROW     6   COL    15   RATE     0.00000    
 BOUNDARY     91   LAYER   1   ROW     7   COL     1   RATE     0.00000    
 BOUNDARY     92   LAYER   1   ROW     7   COL     2   RATE   -0.945077    
 BOUNDARY     93   LAYER   1   ROW     7   COL     3   RATE    -40.0458    
 BOUNDARY     94   LAYER   1   ROW     7   COL     4   RATE   -100.0000    
 BOUNDARY     95   LAYER   1   ROW     7   COL     5   RATE   -100.0000    
 BOUNDARY     96   LAYER   1   ROW     7   COL     6   RATE   -100.0000    
 BOUNDARY     97   LAYER   1   ROW     7   COL     7   RATE   -100.0000    
 BOUNDARY     98   LAYER   1   ROW     7   COL     8   RATE   -100.0000    
 BOUNDARY     99   LAYER   1   ROW     7   COL     9   RATE   -100.0000    
 BOUNDARY    100   LAYER   1   ROW     7   COL    10   RATE   -100.0000    
 BOUNDARY    101   LAYER   1   ROW     7   COL    11   RATE   -100.0000    
 BOUNDARY    102   LAYER   1   ROW     7   COL    12   RATE    -26.4084    
 BOUNDARY    103   LAYER   1   ROW     7   COL    13   RATE    -3.39565    
 BOUNDARY    104   LAYER   1   ROW     7   COL    14   RATE     0.00000    
 BOUNDARY    105   LAYER   1   ROW     7   COL    15   RATE     0.00000    
 BOUNDARY    106   LAYER   1   ROW     8   COL     1   RATE     0.00000    
 BOUNDARY    107   LAYER   1   ROW     8   COL     2   RATE    -11.0029    
 BOUNDARY    108   LAYER   1   ROW     8   COL     3   RATE   -100.0000    
 BOUNDARY    109   LAYER   1   ROW     8   COL     4   RATE   -100.0000    
 BOUNDARY    110   LAYER   1   ROW     8   COL     5   RATE   -100.0000    
 BOUNDARY    111   LAYER   1   ROW     8   COL     6   RATE   -100.0000    
 BOUNDARY    112   LAYER   1   ROW     8   COL     7   RATE   -100.0000    
 BOUNDARY    113   LAYER   1   ROW     8   COL     8   RATE   -100.0000    
 BOUNDARY    114   LAYER   1   ROW     8   COL     9   RATE   -100.0000    
 BOUNDARY    115   LAYER   1   ROW     8   COL    10   RATE   -100.0000    
 BOUNDARY    116   LAYER   1   ROW     8   COL    11   RATE   -100.0000    
 BOUNDARY    117   LAYER   1   ROW     8   COL    12   RATE    -26.7935    
 BOUNDARY    118   LAYER   1   ROW     8   COL    13   RATE    -3.39441    
 BOUNDARY    119   LAYER   1   ROW     8   COL    14   RATE     0.00000    
 BOUNDARY    120   LAYER   1   ROW     8   COL    15   RATE     0.00000    
 BOUNDARY    121   LAYER   1   ROW     9   COL     1   RATE    -18.5811    
 BOUNDARY    122   LAYER   1   ROW     9   COL     2   RATE    -59.1307    
 BOUNDARY    123   LAYER   1   ROW     9   COL     3   RATE   -100.0000    
 BOUNDARY    124   LAYER   1   ROW     9   COL     4   RATE   -100.0000    
 BOUNDARY    125   LAYER   1   ROW     9   COL     5   RATE   -100.0000    
 BOUNDARY    126   LAYER   1   ROW     9   COL     6   RATE   -100.0000    
 BOUNDARY    127   LAYER   1   ROW     9   COL     7   RATE   -100.0000    
 BOUNDARY    128   LAYER   1   ROW     9   COL     8   RATE   -100.0000    
 BOUNDARY    129   LAYER   1   ROW     9   COL     9   RATE   -100.0000    
 BOUNDARY    130   LAYER   1   ROW     9   COL    10   RATE   -100.0000    
 BOUNDARY    131   LAYER   1   ROW     9   COL    11   RATE   -100.0000    
 BOUNDARY    132   LAYER   1   ROW     9   COL    12   RATE    -27.8872    
 BOUNDARY    133   LAYER   1   ROW     9   COL    13   RATE    -4.20515    
 BOUNDARY    134   LAYER   1   ROW     9   COL    14   RATE     0.00000    
 BOUNDARY    135   LAYER   1   ROW     9   COL    15   RATE     0.00000    
 BOUNDARY    136   LAYER   1   ROW    10   COL     1   RATE    -67.3441    
 BOUNDARY    137   LAYER   1   ROW    10   COL     2   RATE   -100.0000    
 BOUNDARY    138   LAYER   1   ROW    10   COL     3   RATE   -100.0000    
 BOUNDARY    139   LAYER   1   ROW    10   COL     4   RATE   -100.0000    
 BOUNDARY    140   LAYER   1   ROW    10   COL     5   RATE   -100.0000    
 BOUNDARY    141   LAYER   1   ROW    10   COL     6   RATE   -100.0000    
 BOUNDARY    142   LAYER   1   ROW    10   COL     7   RATE   -100.0000    
 BOUNDARY    143   LAYER   1   ROW    10   COL     8   RATE   -100.0000    
 BOUNDARY    144   LAYER   1   ROW    10   COL     9   RATE   -100.0000    
 BOUNDARY    145   LAYER   1   ROW    10   COL    10   RATE   -100.0000    
 BOUNDARY    146   LAYER   1   ROW    10   COL    11   RATE   -100.0000    
 BOUNDARY    147   LAYER   1   ROW    10   COL    12   RATE    -28.6809    
 BOUNDARY    148   LAYER   1   ROW    10   COL    13   RATE    -4.72985    
 BOUNDARY    149   LAYER   1   ROW    10   COL    14   RATE     0.00000    
 BOUNDARY    150   LAYER   1   ROW    10   COL    15   RATE     0.00000    

 HEAD WILL BE SAVED ON UNIT 1017 AT END OF TIME STEP    6, STRESS PERIOD    2
WEL   no.    1 value from time series:   0.0000     for time:  7.000     to  8.000    
WEL   no.    2 value from time series:   0.0000     for time:  7.000     to  8.000    
RIV   no.    1 value from time series:   102.50     for time:  7.000     to  8.000    
RIV   no.    2 value from time series:   102.50     for time:  7.000     to  8.000    
RIV   no.    3 value from time series:   112.75     for time:  7.000     to  8.000    
RIV   no.    4 value from time series:   112.75     for time:  7.000     to  8.000    
RIV   no.    5 value from time series:   115.45     for time:  7.000     to  8.000    
RIV   no.    6 value from time series:   115.45     for time:  7.000     to  8.000    
RIV   no.    7 value from time series:   104.65     for time:  7.000     to  8.000    
RIV   no.    8 value from time series:   104.65     for time:  7.000     to  8.000    
RIV   no.    9 value from time series:   115.10     for time:  7.000     to  8.000    
RIV   no.   10 value from time series:   115.10     for time:  7.000     to  8.000    
WEL   no.    1 value from time series:   0.0000     for time:  7.000     to  8.000    
WEL   no.    2 value from time series:   0.0000     for time:  7.000     to  8.000    
RIV   no.    1 value from time series:   102.50     for time:  7.000     to  8.000    
RIV   no.    2 value from time series:   102.50     for time:  7.000     to  8.000    
RIV   no.    3 value from time series:   112.75     for time:  7.000     to  8.000    
RIV   no.    4 value from time series:   112.75     for time:  7.000     to  8.000    
RIV   no.    5 value from time series:   115.45     for time:  7.000     to  8.000    
RIV   no.    6 value from time series:   115.45     for time:  7.000     to  8.000    
RIV   no.    7 value from time series:   104.65     for time:  7.000     to  8.000    
RIV   no.    8 value from time series:   104.65     for time:  7.000     to  8.000    
RIV   no.    9 value from time series:   115.10     for time:  7.000     to  8.000    
RIV   no.   10 value from time series:   115.10     for time:  7.000     to  8.000    

 OUTPUT CONTROL FOR STRESS PERIOD    2   TIME STEP    7
    SAVE BUDGET
    SAVE HEAD
    SAVE HEAD FOR ALL LAYERS
 UBDSV1 SAVING          STORAGE ON UNIT   1016 AT TIME STEP      7, STRESS PERIOD      2
 UBDSV1 SAVING FLOW RIGHT FACE  ON UNIT   1016 AT TIME STEP      7, STRESS PERIOD      2
 UBDSV1 SAVING FLOW FRONT FACE  ON UNIT   1016 AT TIME STEP      7, STRESS PERIOD      2
 UBDSV1 SAVING FLOW LOWER FACE  ON UNIT   1016 AT TIME STEP      7, STRESS PERIOD      2
 UBDSV4 SAVING WELLS NEAR RIVER ON UNIT   1016 AT TIME STEP      7, STRESS PERIOD      2

 WELLS NEAR RIVER   PERIOD  2   STEP  7
 BOUNDARY      1   LAYER   2   ROW     3   COL     4   RATE     0.00000      WELL_1
 BOUNDARY      2   LAYER   2   ROW     8   COL     4   RATE     0.00000      WELL_2
 BOUNDARY      3   LAYER   2   ROW     4   COL     6   RATE   -10.00000    
 BOUNDARY      4   LAYER   2   ROW     5   COL     8   RATE    -20.0000    
 BOUNDARY      5   LAYER   2   ROW     2   COL     9   RATE    -40.0000    
 UBDSV4 SAVING RIVER            ON UNIT   1016 AT TIME STEP      7, STRESS PERIOD      2

 RIVER              PERIOD  2   STEP  7
 BOUNDARY      1   LAYER   1   ROW     1   COL    15   RATE    -3686.03    
 BOUNDARY      2   LAYER   1   ROW     2   COL    15   RATE    -4779.58      RIV2
 BOUNDARY      3   LAYER   1   ROW     3   COL    15   RATE    -989.578      RIV3
 BOUNDARY      4   LAYER   1   ROW     4   COL    15   RATE    -2467.30    
 BOUNDARY      5   LAYER   1   ROW     5   COL    15   RATE    -2093.39    
 BOUNDARY      6   LAYER   1   ROW     6   COL    15   RATE    -1471.37    
 BOUNDARY      7   LAYER   1   ROW     7   COL    15   RATE    -5746.49      RIVX
 BOUNDARY      8   LAYER   1   ROW     8   COL    15   RATE    -5523.36      RIVX
 BOUNDARY      9   LAYER   1   ROW     9   COL    15   RATE    -480.600      RIVX
 BOUNDARY     10   LAYER   1   ROW    10   COL    15   RATE    -1329.82    

 GHB LAKES          PERIOD  2   STEP  7
 BOUNDARY      1   LAYER   1   ROW     3   COL     1   RATE    -14419.2    
 BOUNDARY      2   LAYER   1   ROW     7   COL     1   RATE    -1819.90      GHB2_UPPER
 BOUNDARY      3   LAYER   1   ROW     7   COL     1   RATE    -13201.6      GHB2_LOWER
 UBDSV4 SAVING RECHARGE         ON UNIT   1016 AT TIME STEP      7, STRESS PERIOD      2

 RECHARGE           PERIOD  2   STEP  7
 BOUNDARY      1   LAYER   1   ROW     1   COL     1   RATE     515.625    
 BOUNDARY      2   LAYER   1   ROW     1   COL     2   RATE     515.625    
 BOUNDARY      3   LAYER   1   ROW     1   COL     3   RATE     515.625    
 BOUNDARY      4   LAYER   1   ROW     1   COL     4   RATE     515.625    
 BOUNDARY      5   LAYER   1   ROW     1   COL     5   RATE     515.625    
 BOUNDARY      6   LAYER   1   ROW     1   COL     6   RATE     515.625    
 BOUNDARY      7   LAYER   1   ROW     1   COL     7   RATE     515.625    
 BOUNDARY      8   LAYER   1   ROW     1   COL     8   RATE     515.625    
 BOUNDARY      9   LAYER   1   ROW     1   COL     9   RATE     515.625    
 BOUNDARY     10   LAYER   1   ROW     1   COL    10   RATE     515.625    
 BOUNDARY     11   LAYER   1   ROW     1   COL    11   RATE     515.625    
 BOUNDARY     12   LAYER   1   ROW     1   COL    12   RATE     515.625    
 BOUNDARY     13   LAYER   1   ROW     1   COL    13   RATE     515.625    
 BOUNDARY     14   LAYER   1   ROW     1   COL    14   RATE     515.625    
 BOUNDARY     15   LAYER   1   ROW     1   COL    15   RATE     515.625    
 BOUNDARY     16   LAYER   1   ROW     2   COL     1   RATE     515.625    
 BOUNDARY     17   LAYER   1   ROW     2   COL     2   RATE     515.625    
 BOUNDARY     18   LAYER   1   ROW     2   COL     3   RATE     515.625    
 BOUNDARY     19   LAYER   1   ROW     2   COL     4   RATE     515.625    
 BOUNDARY     20   LAYER   1   ROW     2   COL     5   RATE     515.625    
 BOUNDARY     21   LAYER   1   ROW     2   COL     6   RATE     515.625    
 BOUNDARY     22   LAYER   1   ROW     2   COL     7   RATE     515.625    
 BOUNDARY     23   LAYER   1   ROW     2   COL     8   RATE     515.625    
 BOUNDARY     24   LAYER   1   ROW     2   COL     9   RATE     515.625    
 BOUNDARY     25   LAYER   1   ROW     2   COL    10   RATE     515.625    
 BOUNDARY     26   LAYER   1   ROW     2   COL    11   RATE     515.625    
 BOUNDARY     27   LAYER   1   ROW     2   COL    12   RATE     515.625    
 BOUNDARY     28   LAYER   1   ROW     2   COL    13   RATE     515.625    
 BOUNDARY     29   LAYER   1   ROW     2   COL    14   RATE     515.625    
 BOUNDARY     30   LAYER   1   ROW     2   COL    15   RATE     515.625    
 BOUNDARY     31   LAYER   1   ROW     3   COL     1   RATE     515.625    
 BOUNDARY     32   LAYER   1   ROW     3   COL     2   RATE     515.625    
 BOUNDARY     33   LAYER   1   ROW     3   COL     3   RATE     515.625    
 BOUNDARY     34   LAYER   1   ROW     3   COL     4   RATE     515.625    
 BOUNDARY     35   LAYER   1   ROW     3   COL     5   RATE     515.625    
 BOUNDARY     36   LAYER   1   ROW     3   COL     6   RATE     515.625    
 BOUNDARY     37   LAYER   1   ROW     3   COL     7   RATE     515.625    
 BOUNDARY     38   LAYER   1   ROW     3   COL     8   RATE     515.625    
 BOUNDARY     39   LAYER   1   ROW     3   COL     9   RATE     515.625    
 BOUNDARY     40   LAYER   1   ROW     3   COL    10   RATE     515.625    
 BOUNDARY     41   LAYER   1   ROW     3   COL    11   RATE     515.625    
 BOUNDARY     42   LAYER   1   ROW     3   COL    12   RATE     515.625    
 BOUNDARY     43   LAYER   1   ROW     3   COL    13   RATE     515.625    
 BOUNDARY     44   LAYER   1   ROW     3   COL    14   RATE     515.625    
 BOUNDARY     45   LAYER   1   ROW     3   COL    15   RATE     515.625    
 BOUNDARY     46   LAYER   1   ROW     4   COL     1   RATE     515.625    
 BOUNDARY     47   LAYER   1   ROW     4   COL     2   RATE     515.625    
 BOUNDARY     48   LAYER   1   ROW     4   COL     3   RATE     515.625    
 BOUNDARY     49   LAYER   1   ROW     4   COL     4   RATE     515.625    
 BOUNDARY     50   LAYER   1   ROW     4   COL     5   RATE     515.625    
 BOUNDARY     51   LAYER   1   ROW     4   COL     6   RATE     515.625    
 BOUNDARY     52   LAYER   1   ROW     4   COL     7   RATE     515.625    
 BOUNDARY     53   LAYER   1   ROW     4   COL     8   RATE     515.625    
 BOUNDARY     54   LAYER   1   ROW     4   COL     9   RATE     515.625    
 BOUNDARY     55   LAYER   1   ROW     4   COL    10   RATE     515.625    
 BOUNDARY     56   LAYER   1   ROW     4   COL    11   RATE     515.625    
 BOUNDARY     57   LAYER   1   ROW     4   COL    12   RATE     515.625    
 BOUNDARY     58   LAYER   1   ROW     4   COL    13   RATE     515.625    
 BOUNDARY     59   LAYER   1   ROW     4   COL    14   RATE     515.625    
 BOUNDARY     60   LAYER   1   ROW     4   COL    15   RATE     515.625    
 BOUNDARY     61   LAYER   1   ROW     5   COL     1   RATE     515.625    
 BOUNDARY     62   LAYER   1   ROW     5   COL     2   RATE     515.625    
 BOUNDARY     63   LAYER   1   ROW     5   COL     3   RATE     515.625    
 BOUNDARY     64   LAYER   1   ROW     5   COL     4   RATE     515.625    
 BOUNDARY     65   LAYER   1   ROW     5   COL     5   RATE     515.625    
 BOUNDARY     66   LAYER   1   ROW     5   COL     6   RATE     515.625    
 BOUNDARY     67   LAYER   1   ROW     5   COL     7   RATE     515.625    
 BOUNDARY     68   LAYER   1   ROW     5   COL     8   RATE     515.625    
 BOUNDARY     69   LAYER   1   ROW     5   COL     9   RATE     515.625    
 BOUNDARY     70   LAYER   1   ROW     5   COL    10   RATE     515.625    
 BOUNDARY     71   LAYER   1   ROW     5   COL    11   RATE     515.625    
 BOUNDARY     72   LAYER   1   ROW     5   COL    12   RATE     515.625    
 BOUNDARY     73   LAYER   1   ROW     5   COL    13   RATE     515.625    
 BOUNDARY     74   LAYER   1   ROW     5   COL    14   RATE     515.625    
 BOUNDARY     75   LAYER   1   ROW     5   COL    15   RATE     515.625    
 BOUNDARY     76   LAYER   1   ROW     6   COL     1   RATE     515.625    
 BOUNDARY     77   LAYER   1   ROW     6   COL     2   RATE     515.625    
 BOUNDARY     78   LAYER   1   ROW     6   COL     3   RATE     515.625    
 BOUNDARY     79   LAYER   1   ROW     6   COL     4   RATE     515.625    
 BOUNDARY     80   LAYER   1   ROW     6   COL     5   RATE     515.625    
 BOUNDARY     81   LAYER   1   ROW     6   COL     6   RATE     515.625    
 BOUNDARY     82   LAYER   1   ROW     6   COL     7   RATE     515.625    
 BOUNDARY     83   LAYER   1   ROW     6   COL     8   RATE     515.625    
 BOUNDARY     84   LAYER   1   ROW     6   COL     9   RATE     515.625    
 BOUNDARY     85   LAYER   1   ROW     6   COL    10   RATE     515.625    
 BOUNDARY     86   LAYER   1   ROW     6   COL    11   RATE     515.625    
 BOUNDARY     87   LAYER   1   ROW     6   COL    12   RATE     515.625    
 BOUNDARY     88   LAYER   1   ROW     6   COL    13   RATE     515.625    
 BOUNDARY     89   LAYER   1   ROW     6   COL    14   RATE     515.625    
 BOUNDARY     90   LAYER   1   ROW     6   COL    15   RATE     515.625    
 BOUNDARY     91   LAYER   1   ROW     7   COL     1   RATE     515.625    
 BOUNDARY     92   LAYER   1   ROW     7   COL     2   RATE     515.625    
 BOUNDARY     93   LAYER   1   ROW     7   COL     3   RATE     515.625    
 BOUNDARY     94   LAYER   1   ROW     7   COL     4   RATE     515.625    
 BOUNDARY     95   LAYER   1   ROW     7   COL     5   RATE     515.625    
 BOUNDARY     96   LAYER   1   ROW     7   COL     6   RATE     515.625    
 BOUNDARY     97   LAYER   1   ROW     7   COL     7   RATE     515.625    
 BOUNDARY     98   LAYER   1   ROW     7   COL     8   RATE     515.625    
 BOUNDARY     99   LAYER   1   ROW     7   COL     9   RATE     515.625    
 BOUNDARY    100   LAYER   1   ROW     7   COL    10   RATE     515.625    
 BOUNDARY    101   LAYER   1   ROW     7   COL    11   RATE     515.625    
 BOUNDARY    102   LAYER   1   ROW     7   COL    12   RATE     515.625    
 BOUNDARY    103   LAYER   1   ROW     7   COL    13   RATE     515.625    
 BOUNDARY    104   LAYER   1   ROW     7   COL    14   RATE     515.625    
 BOUNDARY    105   LAYER   1   ROW     7   COL    15   RATE     515.625    
 BOUNDARY    106   LAYER   1   ROW     8   COL     1   RATE     515.625    
 BOUNDARY    107   LAYER   1   ROW     8   COL     2   RATE     515.625    
 BOUNDARY    108   LAYER   1   ROW     8   COL     3   RATE     515.625    
 BOUNDARY    109   LAYER   1   ROW     8   COL     4   RATE     515.625    
 BOUNDARY    110   LAYER   1   ROW     8   COL     5   RATE     515.625    
 BOUNDARY    111   LAYER   1   ROW     8   COL     6   RATE     515.625    
 BOUNDARY    112   LAYER   1   ROW     8   COL     7   RATE     515.625    
 BOUNDARY    113   LAYER   1   ROW     8   COL     8   RATE     515.625    
 BOUNDARY    114   LAYER   1   ROW     8   COL     9   RATE     515.625    
 BOUNDARY    115   LAYER   1   ROW     8   COL    10   RATE     515.625    
 BOUNDARY    116   LAYER   1   ROW     8   COL    11   RATE     515.625    
 BOUNDARY    117   LAYER   1   ROW     8   COL    12   RATE     515.625    
 BOUNDARY    118   LAYER   1   ROW     8   COL    13   RATE     515.625    
 BOUNDARY    119   LAYER   1   ROW     8   COL    14   RATE     515.625    
 BOUNDARY    120   LAYER   1   ROW     8   COL    15   RATE     515.625    
 BOUNDARY    121   LAYER   1   ROW     9   COL     1   RATE     515.625    
 BOUNDARY    122   LAYER   1   ROW     9   COL     2   RATE     515.625    
 BOUNDARY    123   LAYER   1   ROW     9   COL     3   RATE     515.625    
 BOUNDARY    124   LAYER   1   ROW     9   COL     4   RATE     515.625    
 BOUNDARY    125   LAYER   1   ROW     9   COL     5   RATE     515.625    
 BOUNDARY    126   LAYER   1   ROW     9   COL     6   RATE     515.625    
 BOUNDARY    127   LAYER   1   ROW     9   COL     7   RATE     515.625    
 BOUNDARY    128   LAYER   1   ROW     9   COL     8   RATE     515.625    
 BOUNDARY    129   LAYER   1   ROW     9   COL     9   RATE     515.625    
 BOUNDARY    130   LAYER   1   ROW     9   COL    10   RATE     515.625    
 BOUNDARY    131   LAYER   1   ROW     9   COL    11   RATE     515.625    
 BOUNDARY    132   LAYER   1   ROW     9   COL    12   RATE     515.625    
 BOUNDARY    133   LAYER   1   ROW     9   COL    13   RATE     515.625    
 BOUNDARY    134   LAYER   1   ROW     9   COL    14   RATE     515.625    
 BOUNDARY    135   LAYER   1   ROW     9   COL    15   RATE     515.625    
 BOUNDARY    136   LAYER   1   ROW    10   COL     1   RATE     515.625    
 BOUNDARY    137   LAYER   1   ROW    10   COL     2   RATE     515.625    
 BOUNDARY    138   LAYER   1   ROW    10   COL     3   RATE     515.625    
 BOUNDARY    139   LAYER   1   ROW    10   COL     4   RATE     515.625    
 BOUNDARY    140   LAYER   1   ROW    10   COL     5   RATE     515.625    
 BOUNDARY    141   LAYER   1   ROW    10   COL     6   RATE     515.625    
 BOUNDARY    142   LAYER   1   ROW    10   COL     7   RATE     515.625    
 BOUNDARY    143   LAYER   1   ROW    10   COL     8   RATE     515.625    
 BOUNDARY    144   LAYER   1   ROW    10   COL     9   RATE     515.625    
 BOUNDARY    145   LAYER   1   ROW    10   COL    10   RATE     515.625    
 BOUNDARY    146   LAYER   1   ROW    10   COL    11   RATE     515.625    
 BOUNDARY    147   LAYER   1   ROW    10   COL    12   RATE     515.625    
 BOUNDARY    148   LAYER   1   ROW    10   COL    13   RATE     515.625    
 BOUNDARY    149   LAYER   1   ROW    10   COL    14   RATE     515.625    
 BOUNDARY    150   LAYER   1   ROW    10   COL    15   RATE     515.625    
 UBDSV4 SAVING ET SEGS          ON UNIT   1016 AT TIME STEP      7, STRESS PERIOD      2

 ET SEGS            PERIOD  2   STEP  7
 BOUNDARY      1   LAYER   1   ROW     1   COL     1   RATE    -2.06943    
 BOUNDARY      2   LAYER   1   ROW     1   COL     2   RATE    -8.92206    
 BOUNDARY      3   LAYER   1   ROW     1   COL     3   RATE    -47.7228    
 BOUNDARY      4   LAYER   1   ROW     1   COL     4   RATE   -100.0000    
 BOUNDARY      5   LAYER   1   ROW     1   COL     5   RATE   -100.0000    
 BOUNDARY      6   LAYER   1   ROW     1   COL     6   RATE   -100.0000    
 BOUNDARY      7   LAYER   1   ROW     1   COL     7   RATE   -100.0000    
 BOUNDARY      8   LAYER   1   ROW     1   COL     8   RATE   -100.0000    
 BOUNDARY      9   LAYER   1   ROW     1   COL     9   RATE   -100.0000    
 BOUNDARY     10   LAYER   1   ROW     1   COL    10   RATE   -100.0000    
 BOUNDARY     11   LAYER   1   ROW     1   COL    11   RATE   -100.0000    
 BOUNDARY     12   LAYER   1   ROW     1   COL    12   RATE    -16.5108    
 BOUNDARY     13   LAYER   1   ROW     1   COL    13   RATE     0.00000    
 BOUNDARY     14   LAYER   1   ROW     1   COL    14   RATE     0.00000    
 BOUNDARY     15   LAYER   1   ROW     1   COL    15   RATE     0.00000    
 BOUNDARY     16   LAYER   1   ROW     2   COL     1   RATE     0.00000    
 BOUNDARY     17   LAYER   1   ROW     2   COL     2   RATE    -4.40689    
 BOUNDARY     18   LAYER   1   ROW     2   COL     3   RATE    -28.0046    
 BOUNDARY     19   LAYER   1   ROW     2   COL     4   RATE   -100.0000    
 BOUNDARY     20   LAYER   1   ROW     2   COL     5   RATE   -100.0000    
 BOUNDARY     21   LAYER   1   ROW     2   COL     6   RATE   -100.0000    
 BOUNDARY     22   LAYER   1   ROW     2   COL     7   RATE   -100.0000    
 BOUNDARY     23   LAYER   1   ROW     2   COL     8   RATE   -100.0000    
 BOUNDARY     24   LAYER   1   ROW     2   COL     9   RATE   -100.0000    
 BOUNDARY     25   LAYER   1   ROW     2   COL    10   RATE   -100.0000    
 BOUNDARY     26   LAYER   1   ROW     2   COL    11   RATE   -100.0000    
 BOUNDARY     27   LAYER   1   ROW     2   COL    12   RATE    -18.2505    
 BOUNDARY     28   LAYER   1   ROW     2   COL    13   RATE   -1.740338E-03
 BOUNDARY     29   LAYER   1   ROW     2   COL    14   RATE     0.00000    
 BOUNDARY     30   LAYER   1   ROW     2   COL    15   RATE     0.00000    
 BOUNDARY     31   LAYER   1   ROW     3   COL     1   RATE     0.00000    
 BOUNDARY     32   LAYER   1   ROW     3   COL     2   RATE     0.00000    
 BOUNDARY     33   LAYER   1   ROW     3   COL     3   RATE    -22.0158    
 BOUNDARY     34   LAYER   1   ROW     3   COL     4   RATE   -100.0000    
 BOUNDARY     35   LAYER   1   ROW     3   COL     5   RATE   -100.0000    
 BOUNDARY     36   LAYER   1   ROW     3   COL     6   RATE   -100.0000    
 BOUNDARY     37   LAYER   1   ROW     3   COL     7   RATE   -100.0000    
 BOUNDARY     38   LAYER   1   ROW     3   COL     8   RATE   -100.0000    
 BOUNDARY     39   LAYER   1   ROW     3   COL     9   RATE   -100.0000    
 BOUNDARY     40   LAYER   1   ROW     3   COL    10   RATE   -100.0000    
 BOUNDARY     41   LAYER   1   ROW     3   COL    11   RATE   -100.0000    
 BOUNDARY     42   LAYER   1   ROW     3   COL    12   RATE    -21.1849    
 BOUNDARY     43   LAYER   1   ROW     3   COL    13   RATE    -1.78927    
 BOUNDARY     44   LAYER   1   ROW     3   COL    14   RATE     0.00000    
 BOUNDARY     45   LAYER   1   ROW     3   COL    15   RATE     0.00000    
 BOUNDARY     46   LAYER   1   ROW     4   COL     1   RATE     0.00000    
 BOUNDARY     47   LAYER   1   ROW     4   COL     2   RATE    -2.89297    
 BOUNDARY     48   LAYER   1   ROW     4   COL     3   RATE    -25.8807    
 BOUNDARY     49   LAYER   1   ROW     4   COL     4   RATE   -100.0000    
 BOUNDARY     50   LAYER   1   ROW     4   COL     5   RATE   -100.0000    
 BOUNDARY     51   LAYER   1   ROW     4   COL     6   RATE   -100.0000    
 BOUNDARY     52   LAYER   1   ROW     4   COL     7   RATE   -100.0000    
 BOUNDARY     53   LAYER   1   ROW     4   COL     8   RATE   -100.0000    
 BOUNDARY     54   LAYER   1   ROW     4   COL     9   RATE   -100.0000    
 BOUNDARY     55   LAYER   1   ROW     4   COL    10   RATE   -100.0000    
 BOUNDARY     56   LAYER   1   ROW     4   COL    11   RATE   -100.0000    
 BOUNDARY     57   LAYER   1   ROW     4   COL    12   RATE    -23.9861    
 BOUNDARY     58   LAYER   1   ROW     4   COL    13   RATE    -3.25558    
 BOUNDARY     59   LAYER   1   ROW     4   COL    14   RATE     0.00000    
 BOUNDARY     60   LAYER   1   ROW     4   COL    15   RATE     0.00000    
 BOUNDARY     61   LAYER   1   ROW     5   COL     1   RATE     0.00000    
 BOUNDARY     62   LAYER   1   ROW     5   COL     2   RATE    -5.86625    
 BOUNDARY     63   LAYER   1   ROW     5   COL     3   RATE    -29.8682    
 BOUNDARY     64   LAYER   1   ROW     5   COL     4   RATE   -100.0000    
 BOUNDARY     65   LAYER   1   ROW     5   COL     5   RATE   -100.0000    
 BOUNDARY     66   LAYER   1   ROW     5   COL     6   RATE   -100.0000    
 BOUNDARY     67   LAYER   1   ROW     5   COL     7   RATE   -100.0000    
 BOUNDARY     68   LAYER   1   ROW     5   COL     8   RATE   -100.0000    
 BOUNDARY     69   LAYER   1   ROW     5   COL     9   RATE   -100.0000    
 BOUNDARY     70   LAYER   1   ROW     5   COL    10   RATE   -100.0000    
 BOUNDARY     71   LAYER   1   ROW     5   COL    11   RATE   -100.0000    
 BOUNDARY     72   LAYER   1   ROW     5   COL    12   RATE    -25.9286    
 BOUNDARY     73   LAYER   1   ROW     5   COL    13   RATE    -4.17580    
 BOUNDARY     74   LAYER   1   ROW     5   COL    14   RATE     0.00000    
 BOUNDARY     75   LAYER   1   ROW     5   COL    15   RATE     0.00000    
 BOUNDARY     76   LAYER   1   ROW     6   COL     1   RATE     0.00000    
 BOUNDARY     77   LAYER   1   ROW     6   COL     2   RATE    -4.43824    
 BOUNDARY     78   LAYER   1   ROW     6   COL     3   RATE    -33.1792    
 BOUNDARY     79   LAYER   1   ROW     6   COL     4   RATE   -100.0000    
 BOUNDARY     80   LAYER   1   ROW     6   COL     5   RATE   -100.0000    
 BOUNDARY     81   LAYER   1   ROW     6   COL     6   RATE   -100.0000    
 BOUNDARY     82   LAYER   1   ROW     6   COL     7   RATE   -100.0000    
 BOUNDARY     83   LAYER   1   ROW     6   COL     8   RATE   -100.0000    
 BOUNDARY     84   LAYER   1   ROW     6   COL     9   RATE   -100.0000    
 BOUNDARY     85   LAYER   1   ROW     6   COL    10   RATE   -100.0000    
 BOUNDARY     86   LAYER   1   ROW     6   COL    11   RATE   -100.0000    
 BOUNDARY     87   LAYER   1   ROW     6   COL    12   RATE    -26.5778    
 BOUNDARY     88   LAYER   1   ROW     6   COL    13   RATE    -4.13570    
 BOUNDARY     89   LAYER   1   ROW     6   COL    14   RATE     0.00000    
 BOUNDARY     90   LAYER   1   ROW     6   COL    15   RATE     0.00000    
 BOUNDARY     91   LAYER   1   ROW     7   COL     1   RATE     0.00000    
 BOUNDARY     92   LAYER   1   ROW     7   COL     2   RATE   -0.946071    
 BOUNDARY     93   LAYER   1   ROW     7   COL     3   RATE    -40.0659    
 BOUNDARY     94   LAYER   1   ROW     7   COL     4   RATE   -100.0000    
 BOUNDARY     95   LAYER   1   ROW     7   COL     5   RATE   -100.0000    
 BOUNDARY     96   LAYER   1   ROW     7   COL     6   RATE   -100.0000    
 BOUNDARY     97   LAYER   1   ROW     7   COL     7   RATE   -100.0000    
 BOUNDARY     98   LAYER   1   ROW     7   COL     8   RATE   -100.0000    
 BOUNDARY     99   LAYER   1   ROW     7   COL     9   RATE   -100.0000    
 BOUNDARY    100   LAYER   1   ROW     7   COL    10   RATE   -100.0000    
 BOUNDARY    101   LAYER   1   ROW     7   COL    11   RATE   -100.0000    
 BOUNDARY    102   LAYER   1   ROW     7   COL    12   RATE    -26.4124    
 BOUNDARY    103   LAYER   1   ROW     7   COL    13   RATE    -3.39711    
 BOUNDARY    104   LAYER   1   ROW     7   COL    14   RATE     0.00000    
 BOUNDARY    105   LAYER   1   ROW     7   COL    15   RATE     0.00000    
 BOUNDARY    106   LAYER   1   ROW     8   COL     1   RATE     0.00000    
 BOUNDARY    107   LAYER   1   ROW     8   COL     2   RATE    -11.0067    
 BOUNDARY    108   LAYER   1   ROW     8   COL     3   RATE   -100.0000    
 BOUNDARY    109   LAYER   1   ROW     8   COL     4   RATE   -100.0000    
 BOUNDARY    110   LAYER   1   ROW     8   COL     5   RATE   -100.0000    
 BOUNDARY    111   LAYER   1   ROW     8   COL     6   RATE   -100.0000    
 BOUNDARY    112   LAYER   1   ROW     8   COL     7   RATE   -100.0000    
 BOUNDARY    113   LAYER   1   ROW     8   COL     8   RATE   -100.0000    
 BOUNDARY    114   LAYER   1   ROW     8   COL     9   RATE   -100.0000    
 BOUNDARY    115   LAYER   1   ROW     8   COL    10   RATE   -100.0000    
 BOUNDARY    116   LAYER   1   ROW     8   COL    11   RATE   -100.0000    
 BOUNDARY    117   LAYER   1   ROW     8   COL    12   RATE    -26.7974    
 BOUNDARY    118   LAYER   1   ROW     8   COL    13   RATE    -3.39589    
 BOUNDARY    119   LAYER   1   ROW     8   COL    14   RATE     0.00000    
 BOUNDARY    120   LAYER   1   ROW     8   COL    15   RATE     0.00000    
 BOUNDARY    121   LAYER   1   ROW     9   COL     1   RATE    -18.5850    
 BOUNDARY    122   LAYER   1   ROW     9   COL     2   RATE    -59.1509    
 BOUNDARY    123   LAYER   1   ROW     9   COL     3   RATE   -100.0000    
 BOUNDARY    124   LAYER   1   ROW     9   COL     4   RATE   -100.0000    
 BOUNDARY    125   LAYER   1   ROW     9   COL     5   RATE   -100.0000    
 BOUNDARY    126   LAYER   1   ROW     9   COL     6   RATE   -100.0000    
 BOUNDARY    127   LAYER   1   ROW     9   COL     7   RATE   -100.0000    
 BOUNDARY    128   LAYER   1   ROW     9   COL     8   RATE   -100.0000    
 BOUNDARY    129   LAYER   1   ROW     9   COL     9   RATE   -100.0000    
 BOUNDARY    130   LAYER   1   ROW     9   COL    10   RATE   -100.0000    
 BOUNDARY    131   LAYER   1   ROW     9   COL    11   RATE   -100.0000    
 BOUNDARY    132   LAYER   1   ROW     9   COL    12   RATE    -27.8911    
 BOUNDARY    133   LAYER   1   ROW     9   COL    13   RATE    -4.20661    
 BOUNDARY    134   LAYER   1   ROW     9   COL    14   RATE     0.00000    
 BOUNDARY    135   LAYER   1   ROW     9   COL    15   RATE     0.00000    
 BOUNDARY    136   LAYER   1   ROW    10   COL     1   RATE    -67.3644    
 BOUNDARY    137   LAYER   1   ROW    10   COL     2   RATE   -100.0000    
 BOUNDARY    138   LAYER   1   ROW    10   COL     3   RATE   -100.0000    
 BOUNDARY    139   LAYER   1   ROW    10   COL     4   RATE   -100.0000    
 BOUNDARY    140   LAYER   1   ROW    10   COL     5   RATE   -100.0000    
 BOUNDARY    141   LAYER   1   ROW    10   COL     6   RATE   -100.0000    
 BOUNDARY    142   LAYER   1   ROW    10   COL     7   RATE   -100.0000    
 BOUNDARY    143   LAYER   1   ROW    10   COL     8   RATE   -100.0000    
 BOUNDARY    144   LAYER   1   ROW    10   COL     9   RATE   -100.0000    
 BOUNDARY    145   LAYER   1   ROW    10   COL    10   RATE   -100.0000    
 BOUNDARY    146   LAYER   1   ROW    10   COL    11   RATE   -100.0000    
 BOUNDARY    147   LAYER   1   ROW    10   COL    12   RATE    -28.6849    
 BOUNDARY    148   LAYER   1   ROW    10   COL    13   RATE    -4.73131    
 BOUNDARY    149   LAYER   1   ROW    10   COL    14   RATE     0.00000    
 BOUNDARY    150   LAYER   1   ROW    10   COL    15   RATE     0.00000    

 HEAD WILL BE SAVED ON UNIT 1017 AT END OF TIME STEP    7, STRESS PERIOD    2
WEL   no.    1 value from time series:   0.0000     for time:  8.000     to  9.000    
WEL   no.    2 value from time series:   0.0000     for time:  8.000     to  9.000    
RIV   no.    1 value from time series:   102.17     for time:  8.000     to  9.000    
RIV   no.    2 value from time series:   102.17     for time:  8.000     to  9.000    
RIV   no.    3 value from time series:   112.52     for time:  8.000     to  9.000    
RIV   no.    4 value from time series:   112.52     for time:  8.000     to  9.000    
RIV   no.    5 value from time series:   115.28     for time:  8.000     to  9.000    
RIV   no.    6 value from time series:   115.28     for time:  8.000     to  9.000    
RIV   no.    7 value from time series:   104.28     for time:  8.000     to  9.000    
RIV   no.    8 value from time series:   104.28     for time:  8.000     to  9.000    
RIV   no.    9 value from time series:   115.10     for time:  8.000     to  9.000    
RIV   no.   10 value from time series:   115.10     for time:  8.000     to  9.000    
WEL   no.    1 value from time series:   0.0000     for time:  8.000     to  9.000    
WEL   no.    2 value from time series:   0.0000     for time:  8.000     to  9.000    
RIV   no.    1 value from time series:   102.17     for time:  8.000     to  9.000    
RIV   no.    2 value from time series:   102.17     for time:  8.000     to  9.000    
RIV   no.    3 value from time series:   112.52     for time:  8.000     to  9.000    
RIV   no.    4 value from time series:   112.52     for time:  8.000     to  9.000    
RIV   no.    5 value from time series:   115.28     for time:  8.000     to  9.000    
RIV   no.    6 value from time series:   115.28     for time:  8.000     to  9.000    
RIV   no.    7 value from time series:   104.28     for time:  8.000     to  9.000    
RIV   no.    8 value from time series:   104.28     for time:  8.000     to  9.000    
RIV   no.    9 value from time series:   115.10     for time:  8.000     to  9.000    
RIV   no.   10 value from time series:   115.10     for time:  8.000     to  9.000    

 OUTPUT CONTROL FOR STRESS PERIOD    2   TIME STEP    8
    SAVE BUDGET
    SAVE HEAD
    SAVE HEAD FOR ALL LAYERS
 UBDSV1 SAVING          STORAGE ON UNIT   1016 AT TIME STEP      8, STRESS PERIOD      2
 UBDSV1 SAVING FLOW RIGHT FACE  ON UNIT   1016 AT TIME STEP      8, STRESS PERIOD      2
 UBDSV1 SAVING FLOW FRONT FACE  ON UNIT   1016 AT TIME STEP      8, STRESS PERIOD      2
 UBDSV1 SAVING FLOW LOWER FACE  ON UNIT   1016 AT TIME STEP      8, STRESS PERIOD      2
 UBDSV4 SAVING WELLS NEAR RIVER ON UNIT   1016 AT TIME STEP      8, STRESS PERIOD      2

 WELLS NEAR RIVER   PERIOD  2   STEP  8
 BOUNDARY      1   LAYER   2   ROW     3   COL     4   RATE     0.00000      WELL_1
 BOUNDARY      2   LAYER   2   ROW     8   COL     4   RATE     0.00000      WELL_2
 BOUNDARY      3   LAYER   2   ROW     4   COL     6   RATE   -10.00000    
 BOUNDARY      4   LAYER   2   ROW     5   COL     8   RATE    -20.0000    
 BOUNDARY      5   LAYER   2   ROW     2   COL     9   RATE    -40.0000    
 UBDSV4 SAVING RIVER            ON UNIT   1016 AT TIME STEP      8, STRESS PERIOD      2

 RIVER              PERIOD  2   STEP  8
 BOUNDARY      1   LAYER   1   ROW     1   COL    15   RATE    -4040.54    
 BOUNDARY      2   LAYER   1   ROW     2   COL    15   RATE    -5133.61      RIV2
 BOUNDARY      3   LAYER   1   ROW     3   COL    15   RATE    -1257.13      RIV3
 BOUNDARY      4   LAYER   1   ROW     4   COL    15   RATE    -2732.32    
 BOUNDARY      5   LAYER   1   ROW     5   COL    15   RATE    -2254.99    
 BOUNDARY      6   LAYER   1   ROW     6   COL    15   RATE    -1632.53    
 BOUNDARY      7   LAYER   1   ROW     7   COL    15   RATE    -6106.62      RIVX
 BOUNDARY      8   LAYER   1   ROW     8   COL    15   RATE    -5886.58      RIVX
 BOUNDARY      9   LAYER   1   ROW     9   COL    15   RATE    -542.575      RIVX
 BOUNDARY     10   LAYER   1   ROW    10   COL    15   RATE    -1393.07    

 GHB LAKES          PERIOD  2   STEP  8
 BOUNDARY      1   LAYER   1   ROW     3   COL     1   RATE    -14419.5    
 BOUNDARY      2   LAYER   1   ROW     7   COL     1   RATE    -1819.21      GHB2_UPPER
 BOUNDARY      3   LAYER   1   ROW     7   COL     1   RATE    -13201.4      GHB2_LOWER
 UBDSV4 SAVING RECHARGE         ON UNIT   1016 AT TIME STEP      8, STRESS PERIOD      2

 RECHARGE           PERIOD  2   STEP  8
 BOUNDARY      1   LAYER   1   ROW     1   COL     1   RATE     517.708    
 BOUNDARY      2   LAYER   1   ROW     1   COL     2   RATE     517.708    
 BOUNDARY      3   LAYER   1   ROW     1   COL     3   RATE     517.708    
 BOUNDARY      4   LAYER   1   ROW     1   COL     4   RATE     517.708    
 BOUNDARY      5   LAYER   1   ROW     1   COL     5   RATE     517.708    
 BOUNDARY      6   LAYER   1   ROW     1   COL     6   RATE     517.708    
 BOUNDARY      7   LAYER   1   ROW     1   COL     7   RATE     517.708    
 BOUNDARY      8   LAYER   1   ROW     1   COL     8   RATE     517.708    
 BOUNDARY      9   LAYER   1   ROW     1   COL     9   RATE     517.708    
 BOUNDARY     10   LAYER   1   ROW     1   COL    10   RATE     517.708    
 BOUNDARY     11   LAYER   1   ROW     1   COL    11   RATE     517.708    
 BOUNDARY     12   LAYER   1   ROW     1   COL    12   RATE     517.708    
 BOUNDARY     13   LAYER   1   ROW     1   COL    13   RATE     517.708    
 BOUNDARY     14   LAYER   1   ROW     1   COL    14   RATE     517.708    
 BOUNDARY     15   LAYER   1   ROW     1   COL    15   RATE     517.708    
 BOUNDARY     16   LAYER   1   ROW     2   COL     1   RATE     517.708    
 BOUNDARY     17   LAYER   1   ROW     2   COL     2   RATE     517.708    
 BOUNDARY     18   LAYER   1   ROW     2   COL     3   RATE     517.708    
 BOUNDARY     19   LAYER   1   ROW     2   COL     4   RATE     517.708    
 BOUNDARY     20   LAYER   1   ROW     2   COL     5   RATE     517.708    
 BOUNDARY     21   LAYER   1   ROW     2   COL     6   RATE     517.708    
 BOUNDARY     22   LAYER   1   ROW     2   COL     7   RATE     517.708    
 BOUNDARY     23   LAYER   1   ROW     2   COL     8   RATE     517.708    
 BOUNDARY     24   LAYER   1   ROW     2   COL     9   RATE     517.708    
 BOUNDARY     25   LAYER   1   ROW     2   COL    10   RATE     517.708    
 BOUNDARY     26   LAYER   1   ROW     2   COL    11   RATE     517.708    
 BOUNDARY     27   LAYER   1   ROW     2   COL    12   RATE     517.708    
 BOUNDARY     28   LAYER   1   ROW     2   COL    13   RATE     517.708    
 BOUNDARY     29   LAYER   1   ROW     2   COL    14   RATE     517.708    
 BOUNDARY     30   LAYER   1   ROW     2   COL    15   RATE     517.708    
 BOUNDARY     31   LAYER   1   ROW     3   COL     1   RATE     517.708    
 BOUNDARY     32   LAYER   1   ROW     3   COL     2   RATE     517.708    
 BOUNDARY     33   LAYER   1   ROW     3   COL     3   RATE     517.708    
 BOUNDARY     34   LAYER   1   ROW     3   COL     4   RATE     517.708    
 BOUNDARY     35   LAYER   1   ROW     3   COL     5   RATE     517.708    
 BOUNDARY     36   LAYER   1   ROW     3   COL     6   RATE     517.708    
 BOUNDARY     37   LAYER   1   ROW     3   COL     7   RATE     517.708    
 BOUNDARY     38   LAYER   1   ROW     3   COL     8   RATE     517.708    
 BOUNDARY     39   LAYER   1   ROW     3   COL     9   RATE     517.708    
 BOUNDARY     40   LAYER   1   ROW     3   COL    10   RATE     517.708    
 BOUNDARY     41   LAYER   1   ROW     3   COL    11   RATE     517.708    
 BOUNDARY     42   LAYER   1   ROW     3   COL    12   RATE     517.708    
 BOUNDARY     43   LAYER   1   ROW     3   COL    13   RATE     517.708    
 BOUNDARY     44   LAYER   1   ROW     3   COL    14   RATE     517.708    
 BOUNDARY     45   LAYER   1   ROW     3   COL    15   RATE     517.708    
 BOUNDARY     46   LAYER   1   ROW     4   COL     1   RATE     517.708    
 BOUNDARY     47   LAYER   1   ROW     4   COL     2   RATE     517.708    
 BOUNDARY     48   LAYER   1   ROW     4   COL     3   RATE     517.708    
 BOUNDARY     49   LAYER   1   ROW     4   COL     4   RATE     517.708    
 BOUNDARY     50   LAYER   1   ROW     4   COL     5   RATE     517.708    
 BOUNDARY     51   LAYER   1   ROW     4   COL     6   RATE     517.708    
 BOUNDARY     52   LAYER   1   ROW     4   COL     7   RATE     517.708    
 BOUNDARY     53   LAYER   1   ROW     4   COL     8   RATE     517.708    
 BOUNDARY     54   LAYER   1   ROW     4   COL     9   RATE     517.708    
 BOUNDARY     55   LAYER   1   ROW     4   COL    10   RATE     517.708    
 BOUNDARY     56   LAYER   1   ROW     4   COL    11   RATE     517.708    
 BOUNDARY     57   LAYER   1   ROW     4   COL    12   RATE     517.708    
 BOUNDARY     58   LAYER   1   ROW     4   COL    13   RATE     517.708    
 BOUNDARY     59   LAYER   1   ROW     4   COL    14   RATE     517.708    
 BOUNDARY     60   LAYER   1   ROW     4   COL    15   RATE     517.708    
 BOUNDARY     61   LAYER   1   ROW     5   COL     1   RATE     517.708    
 BOUNDARY     62   LAYER   1   ROW     5   COL     2   RATE     517.708    
 BOUNDARY     63   LAYER   1   ROW     5   COL     3   RATE     517.708    
 BOUNDARY     64   LAYER   1   ROW     5   COL     4   RATE     517.708    
 BOUNDARY     65   LAYER   1   ROW     5   COL     5   RATE     517.708    
 BOUNDARY     66   LAYER   1   ROW     5   COL     6   RATE     517.708    
 BOUNDARY     67   LAYER   1   ROW     5   COL     7   RATE     517.708    
 BOUNDARY     68   LAYER   1   ROW     5   COL     8   RATE     517.708    
 BOUNDARY     69   LAYER   1   ROW     5   COL     9   RATE     517.708    
 BOUNDARY     70   LAYER   1   ROW     5   COL    10   RATE     517.708    
 BOUNDARY     71   LAYER   1   ROW     5   COL    11   RATE     517.708    
 BOUNDARY     72   LAYER   1   ROW     5   COL    12   RATE     517.708    
 BOUNDARY     73   LAYER   1   ROW     5   COL    13   RATE     517.708    
 BOUNDARY     74   LAYER   1   ROW     5   COL    14   RATE     517.708    
 BOUNDARY     75   LAYER   1   ROW     5   COL    15   RATE     517.708    
 BOUNDARY     76   LAYER   1   ROW     6   COL     1   RATE     517.708    
 BOUNDARY     77   LAYER   1   ROW     6   COL     2   RATE     517.708    
 BOUNDARY     78   LAYER   1   ROW     6   COL     3   RATE     517.708    
 BOUNDARY     79   LAYER   1   ROW     6   COL     4   RATE     517.708    
 BOUNDARY     80   LAYER   1   ROW     6   COL     5   RATE     517.708    
 BOUNDARY     81   LAYER   1   ROW     6   COL     6   RATE     517.708    
 BOUNDARY     82   LAYER   1   ROW     6   COL     7   RATE     517.708    
 BOUNDARY     83   LAYER   1   ROW     6   COL     8   RATE     517.708    
 BOUNDARY     84   LAYER   1   ROW     6   COL     9   RATE     517.708    
 BOUNDARY     85   LAYER   1   ROW     6   COL    10   RATE     517.708    
 BOUNDARY     86   LAYER   1   ROW     6   COL    11   RATE     517.708    
 BOUNDARY     87   LAYER   1   ROW     6   COL    12   RATE     517.708    
 BOUNDARY     88   LAYER   1   ROW     6   COL    13   RATE     517.708    
 BOUNDARY     89   LAYER   1   ROW     6   COL    14   RATE     517.708    
 BOUNDARY     90   LAYER   1   ROW     6   COL    15   RATE     517.708    
 BOUNDARY     91   LAYER   1   ROW     7   COL     1   RATE     517.708    
 BOUNDARY     92   LAYER   1   ROW     7   COL     2   RATE     517.708    
 BOUNDARY     93   LAYER   1   ROW     7   COL     3   RATE     517.708    
 BOUNDARY     94   LAYER   1   ROW     7   COL     4   RATE     517.708    
 BOUNDARY     95   LAYER   1   ROW     7   COL     5   RATE     517.708    
 BOUNDARY     96   LAYER   1   ROW     7   COL     6   RATE     517.708    
 BOUNDARY     97   LAYER   1   ROW     7   COL     7   RATE     517.708    
 BOUNDARY     98   LAYER   1   ROW     7   COL     8   RATE     517.708    
 BOUNDARY     99   LAYER   1   ROW     7   COL     9   RATE     517.708    
 BOUNDARY    100   LAYER   1   ROW     7   COL    10   RATE     517.708    
 BOUNDARY    101   LAYER   1   ROW     7   COL    11   RATE     517.708    
 BOUNDARY    102   LAYER   1   ROW     7   COL    12   RATE     517.708    
 BOUNDARY    103   LAYER   1   ROW     7   COL    13   RATE     517.708    
 BOUNDARY    104   LAYER   1   ROW     7   COL    14   RATE     517.708    
 BOUNDARY    105   LAYER   1   ROW     7   COL    15   RATE     517.708    
 BOUNDARY    106   LAYER   1   ROW     8   COL     1   RATE     517.708    
 BOUNDARY    107   LAYER   1   ROW     8   COL     2   RATE     517.708    
 BOUNDARY    108   LAYER   1   ROW     8   COL     3   RATE     517.708    
 BOUNDARY    109   LAYER   1   ROW     8   COL     4   RATE     517.708    
 BOUNDARY    110   LAYER   1   ROW     8   COL     5   RATE     517.708    
 BOUNDARY    111   LAYER   1   ROW     8   COL     6   RATE     517.708    
 BOUNDARY    112   LAYER   1   ROW     8   COL     7   RATE     517.708    
 BOUNDARY    113   LAYER   1   ROW     8   COL     8   RATE     517.708    
 BOUNDARY    114   LAYER   1   ROW     8   COL     9   RATE     517.708    
 BOUNDARY    115   LAYER   1   ROW     8   COL    10   RATE     517.708    
 BOUNDARY    116   LAYER   1   ROW     8   COL    11   RATE     517.708    
 BOUNDARY    117   LAYER   1   ROW     8   COL    12   RATE     517.708    
 BOUNDARY    118   LAYER   1   ROW     8   COL    13   RATE     517.708    
 BOUNDARY    119   LAYER   1   ROW     8   COL    14   RATE     517.708    
 BOUNDARY    120   LAYER   1   ROW     8   COL    15   RATE     517.708    
 BOUNDARY    121   LAYER   1   ROW     9   COL     1   RATE     517.708    
 BOUNDARY    122   LAYER   1   ROW     9   COL     2   RATE     517.708    
 BOUNDARY    123   LAYER   1   ROW     9   COL     3   RATE     517.708    
 BOUNDARY    124   LAYER   1   ROW     9   COL     4   RATE     517.708    
 BOUNDARY    125   LAYER   1   ROW     9   COL     5   RATE     517.708    
 BOUNDARY    126   LAYER   1   ROW     9   COL     6   RATE     517.708    
 BOUNDARY    127   LAYER   1   ROW     9   COL     7   RATE     517.708    
 BOUNDARY    128   LAYER   1   ROW     9   COL     8   RATE     517.708    
 BOUNDARY    129   LAYER   1   ROW     9   COL     9   RATE     517.708    
 BOUNDARY    130   LAYER   1   ROW     9   COL    10   RATE     517.708    
 BOUNDARY    131   LAYER   1   ROW     9   COL    11   RATE     517.708    
 BOUNDARY    132   LAYER   1   ROW     9   COL    12   RATE     517.708    
 BOUNDARY    133   LAYER   1   ROW     9   COL    13   RATE     517.708    
 BOUNDARY    134   LAYER   1   ROW     9   COL    14   RATE     517.708    
 BOUNDARY    135   LAYER   1   ROW     9   COL    15   RATE     517.708    
 BOUNDARY    136   LAYER   1   ROW    10   COL     1   RATE     517.708    
 BOUNDARY    137   LAYER   1   ROW    10   COL     2   RATE     517.708    
 BOUNDARY    138   LAYER   1   ROW    10   COL     3   RATE     517.708    
 BOUNDARY    139   LAYER   1   ROW    10   COL     4   RATE     517.708    
 BOUNDARY    140   LAYER   1   ROW    10   COL     5   RATE     517.708    
 BOUNDARY    141   LAYER   1   ROW    10   COL     6   RATE     517.708    
 BOUNDARY    142   LAYER   1   ROW    10   COL     7   RATE     517.708    
 BOUNDARY    143   LAYER   1   ROW    10   COL     8   RATE     517.708    
 BOUNDARY    144   LAYER   1   ROW    10   COL     9   RATE     517.708    
 BOUNDARY    145   LAYER   1   ROW    10   COL    10   RATE     517.708    
 BOUNDARY    146   LAYER   1   ROW    10   COL    11   RATE     517.708    
 BOUNDARY    147   LAYER   1   ROW    10   COL    12   RATE     517.708    
 BOUNDARY    148   LAYER   1   ROW    10   COL    13   RATE     517.708    
 BOUNDARY    149   LAYER   1   ROW    10   COL    14   RATE     517.708    
 BOUNDARY    150   LAYER   1   ROW    10   COL    15   RATE     517.708    
 UBDSV4 SAVING ET SEGS          ON UNIT   1016 AT TIME STEP      8, STRESS PERIOD      2

 ET SEGS            PERIOD  2   STEP  8
 BOUNDARY      1   LAYER   1   ROW     1   COL     1   RATE    -2.07075    
 BOUNDARY      2   LAYER   1   ROW     1   COL     2   RATE    -8.92338    
 BOUNDARY      3   LAYER   1   ROW     1   COL     3   RATE    -47.7458    
 BOUNDARY      4   LAYER   1   ROW     1   COL     4   RATE   -100.0000    
 BOUNDARY      5   LAYER   1   ROW     1   COL     5   RATE   -100.0000    
 BOUNDARY      6   LAYER   1   ROW     1   COL     6   RATE   -100.0000    
 BOUNDARY      7   LAYER   1   ROW     1   COL     7   RATE   -100.0000    
 BOUNDARY      8   LAYER   1   ROW     1   COL     8   RATE   -100.0000    
 BOUNDARY      9   LAYER   1   ROW     1   COL     9   RATE   -100.0000    
 BOUNDARY     10   LAYER   1   ROW     1   COL    10   RATE   -100.0000    
 BOUNDARY     11   LAYER   1   ROW     1   COL    11   RATE   -100.0000    
 BOUNDARY     12   LAYER   1   ROW     1   COL    12   RATE    -16.5153    
 BOUNDARY     13   LAYER   1   ROW     1   COL    13   RATE     0.00000    
 BOUNDARY     14   LAYER   1   ROW     1   COL    14   RATE     0.00000    
 BOUNDARY     15   LAYER   1   ROW     1   COL    15   RATE     0.00000    
 BOUNDARY     16   LAYER   1   ROW     2   COL     1   RATE     0.00000    
 BOUNDARY     17   LAYER   1   ROW     2   COL     2   RATE    -4.40821    
 BOUNDARY     18   LAYER   1   ROW     2   COL     3   RATE    -28.0090    
 BOUNDARY     19   LAYER   1   ROW     2   COL     4   RATE   -100.0000    
 BOUNDARY     20   LAYER   1   ROW     2   COL     5   RATE   -100.0000    
 BOUNDARY     21   LAYER   1   ROW     2   COL     6   RATE   -100.0000    
 BOUNDARY     22   LAYER   1   ROW     2   COL     7   RATE   -100.0000    
 BOUNDARY     23   LAYER   1   ROW     2   COL     8   RATE   -100.0000    
 BOUNDARY     24   LAYER   1   ROW     2   COL     9   RATE   -100.0000    
 BOUNDARY     25   LAYER   1   ROW     2   COL    10   RATE   -100.0000    
 BOUNDARY     26   LAYER   1   ROW     2   COL    11   RATE   -100.0000    
 BOUNDARY     27   LAYER   1   ROW     2   COL    12   RATE    -18.2550    
 BOUNDARY     28   LAYER   1   ROW     2   COL    13   RATE   -3.532233E-03
 BOUNDARY     29   LAYER   1   ROW     2   COL    14   RATE     0.00000    
 BOUNDARY     30   LAYER   1   ROW     2   COL    15   RATE     0.00000    
 BOUNDARY     31   LAYER   1   ROW     3   COL     1   RATE     0.00000    
 BOUNDARY     32   LAYER   1   ROW     3   COL     2   RATE     0.00000    
 BOUNDARY     33   LAYER   1   ROW     3   COL     3   RATE    -22.0202    
 BOUNDARY     34   LAYER   1   ROW     3   COL     4   RATE   -100.0000    
 BOUNDARY     35   LAYER   1   ROW     3   COL     5   RATE   -100.0000    
 BOUNDARY     36   LAYER   1   ROW     3   COL     6   RATE   -100.0000    
 BOUNDARY     37   LAYER   1   ROW     3   COL     7   RATE   -100.0000    
 BOUNDARY     38   LAYER   1   ROW     3   COL     8   RATE   -100.0000    
 BOUNDARY     39   LAYER   1   ROW     3   COL     9   RATE   -100.0000    
 BOUNDARY     40   LAYER   1   ROW     3   COL    10   RATE   -100.0000    
 BOUNDARY     41   LAYER   1   ROW     3   COL    11   RATE   -100.0000    
 BOUNDARY     42   LAYER   1   ROW     3   COL    12   RATE    -21.1893    
 BOUNDARY     43   LAYER   1   ROW     3   COL    13   RATE    -1.79094    
 BOUNDARY     44   LAYER   1   ROW     3   COL    14   RATE     0.00000    
 BOUNDARY     45   LAYER   1   ROW     3   COL    15   RATE     0.00000    
 BOUNDARY     46   LAYER   1   ROW     4   COL     1   RATE     0.00000    
 BOUNDARY     47   LAYER   1   ROW     4   COL     2   RATE    -2.89429    
 BOUNDARY     48   LAYER   1   ROW     4   COL     3   RATE    -25.8851    
 BOUNDARY     49   LAYER   1   ROW     4   COL     4   RATE   -100.0000    
 BOUNDARY     50   LAYER   1   ROW     4   COL     5   RATE   -100.0000    
 BOUNDARY     51   LAYER   1   ROW     4   COL     6   RATE   -100.0000    
 BOUNDARY     52   LAYER   1   ROW     4   COL     7   RATE   -100.0000    
 BOUNDARY     53   LAYER   1   ROW     4   COL     8   RATE   -100.0000    
 BOUNDARY     54   LAYER   1   ROW     4   COL     9   RATE   -100.0000    
 BOUNDARY     55   LAYER   1   ROW     4   COL    10   RATE   -100.0000    
 BOUNDARY     56   LAYER   1   ROW     4   COL    11   RATE   -100.0000    
 BOUNDARY     57   LAYER   1   ROW     4   COL    12   RATE    -23.9905    
 BOUNDARY     58   LAYER   1   ROW     4   COL    13   RATE    -3.25724    
 BOUNDARY     59   LAYER   1   ROW     4   COL    14   RATE     0.00000    
 BOUNDARY     60   LAYER   1   ROW     4   COL    15   RATE     0.00000    
 BOUNDARY     61   LAYER   1   ROW     5   COL     1   RATE     0.00000    
 BOUNDARY     62   LAYER   1   ROW     5   COL     2   RATE    -5.86757    
 BOUNDARY     63   LAYER   1   ROW     5   COL     3   RATE    -29.8726    
 BOUNDARY     64   LAYER   1   ROW     5   COL     4   RATE   -100.0000    
 BOUNDARY     65   LAYER   1   ROW     5   COL     5   RATE   -100.0000    
 BOUNDARY     66   LAYER   1   ROW     5   COL     6   RATE   -100.0000    
 BOUNDARY     67   LAYER   1   ROW     5   COL     7   RATE   -100.0000    
 BOUNDARY     68   LAYER   1   ROW     5   COL     8   RATE   -100.0000    
 BOUNDARY     69   LAYER   1   ROW     5   COL     9   RATE   -100.0000    
 BOUNDARY     70   LAYER   1   ROW     5   COL    10   RATE   -100.0000    
 BOUNDARY     71   LAYER   1   ROW     5   COL    11   RATE   -100.0000    
 BOUNDARY     72   LAYER   1   ROW     5   COL    12   RATE    -25.9330    
 BOUNDARY     73   LAYER   1   ROW     5   COL    13   RATE    -4.17732    
 BOUNDARY     74   LAYER   1   ROW     5   COL    14   RATE     0.00000    
 BOUNDARY     75   LAYER   1   ROW     5   COL    15   RATE     0.00000    
 BOUNDARY     76   LAYER   1   ROW     6   COL     1   RATE     0.00000    
 BOUNDARY     77   LAYER   1   ROW     6   COL     2   RATE    -4.43954    
 BOUNDARY     78   LAYER   1   ROW     6   COL     3   RATE    -33.2022    
 BOUNDARY     79   LAYER   1   ROW     6   COL     4   RATE   -100.0000    
 BOUNDARY     80   LAYER   1   ROW     6   COL     5   RATE   -100.0000    
 BOUNDARY     81   LAYER   1   ROW     6   COL     6   RATE   -100.0000    
 BOUNDARY     82   LAYER   1   ROW     6   COL     7   RATE   -100.0000    
 BOUNDARY     83   LAYER   1   ROW     6   COL     8   RATE   -100.0000    
 BOUNDARY     84   LAYER   1   ROW     6   COL     9   RATE   -100.0000    
 BOUNDARY     85   LAYER   1   ROW     6   COL    10   RATE   -100.0000    
 BOUNDARY     86   LAYER   1   ROW     6   COL    11   RATE   -100.0000    
 BOUNDARY     87   LAYER   1   ROW     6   COL    12   RATE    -26.5823    
 BOUNDARY     88   LAYER   1   ROW     6   COL    13   RATE    -4.13722    
 BOUNDARY     89   LAYER   1   ROW     6   COL    14   RATE     0.00000    
 BOUNDARY     90   LAYER   1   ROW     6   COL    15   RATE     0.00000    
 BOUNDARY     91   LAYER   1   ROW     7   COL     1   RATE     0.00000    
 BOUNDARY     92   LAYER   1   ROW     7   COL     2   RATE   -0.947216    
 BOUNDARY     93   LAYER   1   ROW     7   COL     3   RATE    -40.0888    
 BOUNDARY     94   LAYER   1   ROW     7   COL     4   RATE   -100.0000    
 BOUNDARY     95   LAYER   1   ROW     7   COL     5   RATE   -100.0000    
 BOUNDARY     96   LAYER   1   ROW     7   COL     6   RATE   -100.0000    
 BOUNDARY     97   LAYER   1   ROW     7   COL     7   RATE   -100.0000    
 BOUNDARY     98   LAYER   1   ROW     7   COL     8   RATE   -100.0000    
 BOUNDARY     99   LAYER   1   ROW     7   COL     9   RATE   -100.0000    
 BOUNDARY    100   LAYER   1   ROW     7   COL    10   RATE   -100.0000    
 BOUNDARY    101   LAYER   1   ROW     7   COL    11   RATE   -100.0000    
 BOUNDARY    102   LAYER   1   ROW     7   COL    12   RATE    -26.4169    
 BOUNDARY    103   LAYER   1   ROW     7   COL    13   RATE    -3.39881    
 BOUNDARY    104   LAYER   1   ROW     7   COL    14   RATE     0.00000    
 BOUNDARY    105   LAYER   1   ROW     7   COL    15   RATE     0.00000    
 BOUNDARY    106   LAYER   1   ROW     8   COL     1   RATE     0.00000    
 BOUNDARY    107   LAYER   1   ROW     8   COL     2   RATE    -11.0111    
 BOUNDARY    108   LAYER   1   ROW     8   COL     3   RATE   -100.0000    
 BOUNDARY    109   LAYER   1   ROW     8   COL     4   RATE   -100.0000    
 BOUNDARY    110   LAYER   1   ROW     8   COL     5   RATE   -100.0000    
 BOUNDARY    111   LAYER   1   ROW     8   COL     6   RATE   -100.0000    
 BOUNDARY    112   LAYER   1   ROW     8   COL     7   RATE   -100.0000    
 BOUNDARY    113   LAYER   1   ROW     8   COL     8   RATE   -100.0000    
 BOUNDARY    114   LAYER   1   ROW     8   COL     9   RATE   -100.0000    
 BOUNDARY    115   LAYER   1   ROW     8   COL    10   RATE   -100.0000    
 BOUNDARY    116   LAYER   1   ROW     8   COL    11   RATE   -100.0000    
 BOUNDARY    117   LAYER   1   ROW     8   COL    12   RATE    -26.8019    
 BOUNDARY    118   LAYER   1   ROW     8   COL    13   RATE    -3.39759    
 BOUNDARY    119   LAYER   1   ROW     8   COL    14   RATE     0.00000    
 BOUNDARY    120   LAYER   1   ROW     8   COL    15   RATE     0.00000    
 BOUNDARY    121   LAYER   1   ROW     9   COL     1   RATE    -18.5894    
 BOUNDARY    122   LAYER   1   ROW     9   COL     2   RATE    -59.1740    
 BOUNDARY    123   LAYER   1   ROW     9   COL     3   RATE   -100.0000    
 BOUNDARY    124   LAYER   1   ROW     9   COL     4   RATE   -100.0000    
 BOUNDARY    125   LAYER   1   ROW     9   COL     5   RATE   -100.0000    
 BOUNDARY    126   LAYER   1   ROW     9   COL     6   RATE   -100.0000    
 BOUNDARY    127   LAYER   1   ROW     9   COL     7   RATE   -100.0000    
 BOUNDARY    128   LAYER   1   ROW     9   COL     8   RATE   -100.0000    
 BOUNDARY    129   LAYER   1   ROW     9   COL     9   RATE   -100.0000    
 BOUNDARY    130   LAYER   1   ROW     9   COL    10   RATE   -100.0000    
 BOUNDARY    131   LAYER   1   ROW     9   COL    11   RATE   -100.0000    
 BOUNDARY    132   LAYER   1   ROW     9   COL    12   RATE    -27.8956    
 BOUNDARY    133   LAYER   1   ROW     9   COL    13   RATE    -4.20833    
 BOUNDARY    134   LAYER   1   ROW     9   COL    14   RATE     0.00000    
 BOUNDARY    135   LAYER   1   ROW     9   COL    15   RATE     0.00000    
 BOUNDARY    136   LAYER   1   ROW    10   COL     1   RATE    -67.3875    
 BOUNDARY    137   LAYER   1   ROW    10   COL     2   RATE   -100.0000    
 BOUNDARY    138   LAYER   1   ROW    10   COL     3   RATE   -100.0000    
 BOUNDARY    139   LAYER   1   ROW    10   COL     4   RATE   -100.0000    
 BOUNDARY    140   LAYER   1   ROW    10   COL     5   RATE   -100.0000    
 BOUNDARY    141   LAYER   1   ROW    10   COL     6   RATE   -100.0000    
 BOUNDARY    142   LAYER   1   ROW    10   COL     7   RATE   -100.0000    
 BOUNDARY    143   LAYER   1   ROW    10   COL     8   RATE   -100.0000    
 BOUNDARY    144   LAYER   1   ROW    10   COL     9   RATE   -100.0000    
 BOUNDARY    145   LAYER   1   ROW    10   COL    10   RATE   -100.0000    
 BOUNDARY    146   LAYER   1   ROW    10   COL    11   RATE   -100.0000    
 BOUNDARY    147   LAYER   1   ROW    10   COL    12   RATE    -28.6894    
 BOUNDARY    148   LAYER   1   ROW    10   COL    13   RATE    -4.73303    
 BOUNDARY    149   LAYER   1   ROW    10   COL    14   RATE     0.00000    
 BOUNDARY    150   LAYER   1   ROW    10   COL    15   RATE     0.00000    

 HEAD WILL BE SAVED ON UNIT 1017 AT END OF TIME STEP    8, STRESS PERIOD    2
WEL   no.    1 value from time series:   0.0000     for time:  9.000     to 10.000    
WEL   no.    2 value from time series:   0.0000     for time:  9.000     to 10.000    
RIV   no.    1 value from time series:   101.75     for time:  9.000     to 10.000    
RIV   no.    2 value from time series:   101.75     for time:  9.000     to 10.000    
RIV   no.    3 value from time series:   112.18     for time:  9.000     to 10.000    
RIV   no.    4 value from time series:   112.18     for time:  9.000     to 10.000    
RIV   no.    5 value from time series:   115.18     for time:  9.000     to 10.000    
RIV   no.    6 value from time series:   115.18     for time:  9.000     to 10.000    
RIV   no.    7 value from time series:   104.07     for time:  9.000     to 10.000    
RIV   no.    8 value from time series:   104.07     for time:  9.000     to 10.000    
RIV   no.    9 value from time series:   114.40     for time:  9.000     to 10.000    
RIV   no.   10 value from time series:   114.40     for time:  9.000     to 10.000    
WEL   no.    1 value from time series:   0.0000     for time:  9.000     to 10.000    
WEL   no.    2 value from time series:   0.0000     for time:  9.000     to 10.000    
RIV   no.    1 value from time series:   101.75     for time:  9.000     to 10.000    
RIV   no.    2 value from time series:   101.75     for time:  9.000     to 10.000    
RIV   no.    3 value from time series:   112.18     for time:  9.000     to 10.000    
RIV   no.    4 value from time series:   112.18     for time:  9.000     to 10.000    
RIV   no.    5 value from time series:   115.18     for time:  9.000     to 10.000    
RIV   no.    6 value from time series:   115.18     for time:  9.000     to 10.000    
RIV   no.    7 value from time series:   104.07     for time:  9.000     to 10.000    
RIV   no.    8 value from time series:   104.07     for time:  9.000     to 10.000    
RIV   no.    9 value from time series:   114.40     for time:  9.000     to 10.000    
RIV   no.   10 value from time series:   114.40     for time:  9.000     to 10.000    

 OUTPUT CONTROL FOR STRESS PERIOD    2   TIME STEP    9
    SAVE BUDGET
    SAVE HEAD
    SAVE HEAD FOR ALL LAYERS
 UBDSV1 SAVING          STORAGE ON UNIT   1016 AT TIME STEP      9, STRESS PERIOD      2
 UBDSV1 SAVING FLOW RIGHT FACE  ON UNIT   1016 AT TIME STEP      9, STRESS PERIOD      2
 UBDSV1 SAVING FLOW FRONT FACE  ON UNIT   1016 AT TIME STEP      9, STRESS PERIOD      2
 UBDSV1 SAVING FLOW LOWER FACE  ON UNIT   1016 AT TIME STEP      9, STRESS PERIOD      2
 UBDSV4 SAVING WELLS NEAR RIVER ON UNIT   1016 AT TIME STEP      9, STRESS PERIOD      2

 WELLS NEAR RIVER   PERIOD  2   STEP  9
 BOUNDARY      1   LAYER   2   ROW     3   COL     4   RATE     0.00000      WELL_1
 BOUNDARY      2   LAYER   2   ROW     8   COL     4   RATE     0.00000      WELL_2
 BOUNDARY      3   LAYER   2   ROW     4   COL     6   RATE   -10.00000    
 BOUNDARY      4   LAYER   2   ROW     5   COL     8   RATE    -20.0000    
 BOUNDARY      5   LAYER   2   ROW     2   COL     9   RATE    -40.0000    
 UBDSV4 SAVING RIVER            ON UNIT   1016 AT TIME STEP      9, STRESS PERIOD      2

 RIVER              PERIOD  2   STEP  9
 BOUNDARY      1   LAYER   1   ROW     1   COL    15   RATE    -4461.52    
 BOUNDARY      2   LAYER   1   ROW     2   COL    15   RATE    -5554.36      RIV2
 BOUNDARY      3   LAYER   1   ROW     3   COL    15   RATE    -1618.43      RIV3
 BOUNDARY      4   LAYER   1   ROW     4   COL    15   RATE    -3091.20    
 BOUNDARY      5   LAYER   1   ROW     5   COL    15   RATE    -2354.44    
 BOUNDARY      6   LAYER   1   ROW     6   COL    15   RATE    -1731.18    
 BOUNDARY      7   LAYER   1   ROW     7   COL    15   RATE    -6299.81      RIVX
 BOUNDARY      8   LAYER   1   ROW     8   COL    15   RATE    -6082.96      RIVX
 BOUNDARY      9   LAYER   1   ROW     9   COL    15   RATE    -1280.01      RIVX
 BOUNDARY     10   LAYER   1   ROW    10   COL    15   RATE    -2132.81    

 GHB LAKES          PERIOD  2   STEP  9
 BOUNDARY      1   LAYER   1   ROW     3   COL     1   RATE    -14419.8    
 BOUNDARY      2   LAYER   1   ROW     7   COL     1   RATE    -1818.72      GHB2_UPPER
 BOUNDARY      3   LAYER   1   ROW     7   COL     1   RATE    -13201.2      GHB2_LOWER
 UBDSV4 SAVING RECHARGE         ON UNIT   1016 AT TIME STEP      9, STRESS PERIOD      2

 RECHARGE           PERIOD  2   STEP  9
 BOUNDARY      1   LAYER   1   ROW     1   COL     1   RATE     519.792    
 BOUNDARY      2   LAYER   1   ROW     1   COL     2   RATE     519.792    
 BOUNDARY      3   LAYER   1   ROW     1   COL     3   RATE     519.792    
 BOUNDARY      4   LAYER   1   ROW     1   COL     4   RATE     519.792    
 BOUNDARY      5   LAYER   1   ROW     1   COL     5   RATE     519.792    
 BOUNDARY      6   LAYER   1   ROW     1   COL     6   RATE     519.792    
 BOUNDARY      7   LAYER   1   ROW     1   COL     7   RATE     519.792    
 BOUNDARY      8   LAYER   1   ROW     1   COL     8   RATE     519.792    
 BOUNDARY      9   LAYER   1   ROW     1   COL     9   RATE     519.792    
 BOUNDARY     10   LAYER   1   ROW     1   COL    10   RATE     519.792    
 BOUNDARY     11   LAYER   1   ROW     1   COL    11   RATE     519.792    
 BOUNDARY     12   LAYER   1   ROW     1   COL    12   RATE     519.792    
 BOUNDARY     13   LAYER   1   ROW     1   COL    13   RATE     519.792    
 BOUNDARY     14   LAYER   1   ROW     1   COL    14   RATE     519.792    
 BOUNDARY     15   LAYER   1   ROW     1   COL    15   RATE     519.792    
 BOUNDARY     16   LAYER   1   ROW     2   COL     1   RATE     519.792    
 BOUNDARY     17   LAYER   1   ROW     2   COL     2   RATE     519.792    
 BOUNDARY     18   LAYER   1   ROW     2   COL     3   RATE     519.792    
 BOUNDARY     19   LAYER   1   ROW     2   COL     4   RATE     519.792    
 BOUNDARY     20   LAYER   1   ROW     2   COL     5   RATE     519.792    
 BOUNDARY     21   LAYER   1   ROW     2   COL     6   RATE     519.792    
 BOUNDARY     22   LAYER   1   ROW     2   COL     7   RATE     519.792    
 BOUNDARY     23   LAYER   1   ROW     2   COL     8   RATE     519.792    
 BOUNDARY     24   LAYER   1   ROW     2   COL     9   RATE     519.792    
 BOUNDARY     25   LAYER   1   ROW     2   COL    10   RATE     519.792    
 BOUNDARY     26   LAYER   1   ROW     2   COL    11   RATE     519.792    
 BOUNDARY     27   LAYER   1   ROW     2   COL    12   RATE     519.792    
 BOUNDARY     28   LAYER   1   ROW     2   COL    13   RATE     519.792    
 BOUNDARY     29   LAYER   1   ROW     2   COL    14   RATE     519.792    
 BOUNDARY     30   LAYER   1   ROW     2   COL    15   RATE     519.792    
 BOUNDARY     31   LAYER   1   ROW     3   COL     1   RATE     519.792    
 BOUNDARY     32   LAYER   1   ROW     3   COL     2   RATE     519.792    
 BOUNDARY     33   LAYER   1   ROW     3   COL     3   RATE     519.792    
 BOUNDARY     34   LAYER   1   ROW     3   COL     4   RATE     519.792    
 BOUNDARY     35   LAYER   1   ROW     3   COL     5   RATE     519.792    
 BOUNDARY     36   LAYER   1   ROW     3   COL     6   RATE     519.792    
 BOUNDARY     37   LAYER   1   ROW     3   COL     7   RATE     519.792    
 BOUNDARY     38   LAYER   1   ROW     3   COL     8   RATE     519.792    
 BOUNDARY     39   LAYER   1   ROW     3   COL     9   RATE     519.792    
 BOUNDARY     40   LAYER   1   ROW     3   COL    10   RATE     519.792    
 BOUNDARY     41   LAYER   1   ROW     3   COL    11   RATE     519.792    
 BOUNDARY     42   LAYER   1   ROW     3   COL    12   RATE     519.792    
 BOUNDARY     43   LAYER   1   ROW     3   COL    13   RATE     519.792    
 BOUNDARY     44   LAYER   1   ROW     3   COL    14   RATE     519.792    
 BOUNDARY     45   LAYER   1   ROW     3   COL    15   RATE     519.792    
 BOUNDARY     46   LAYER   1   ROW     4   COL     1   RATE     519.792    
 BOUNDARY     47   LAYER   1   ROW     4   COL     2   RATE     519.792    
 BOUNDARY     48   LAYER   1   ROW     4   COL     3   RATE     519.792    
 BOUNDARY     49   LAYER   1   ROW     4   COL     4   RATE     519.792    
 BOUNDARY     50   LAYER   1   ROW     4   COL     5   RATE     519.792    
 BOUNDARY     51   LAYER   1   ROW     4   COL     6   RATE     519.792    
 BOUNDARY     52   LAYER   1   ROW     4   COL     7   RATE     519.792    
 BOUNDARY     53   LAYER   1   ROW     4   COL     8   RATE     519.792    
 BOUNDARY     54   LAYER   1   ROW     4   COL     9   RATE     519.792    
 BOUNDARY     55   LAYER   1   ROW     4   COL    10   RATE     519.792    
 BOUNDARY     56   LAYER   1   ROW     4   COL    11   RATE     519.792    
 BOUNDARY     57   LAYER   1   ROW     4   COL    12   RATE     519.792    
 BOUNDARY     58   LAYER   1   ROW     4   COL    13   RATE     519.792    
 BOUNDARY     59   LAYER   1   ROW     4   COL    14   RATE     519.792    
 BOUNDARY     60   LAYER   1   ROW     4   COL    15   RATE     519.792    
 BOUNDARY     61   LAYER   1   ROW     5   COL     1   RATE     519.792    
 BOUNDARY     62   LAYER   1   ROW     5   COL     2   RATE     519.792    
 BOUNDARY     63   LAYER   1   ROW     5   COL     3   RATE     519.792    
 BOUNDARY     64   LAYER   1   ROW     5   COL     4   RATE     519.792    
 BOUNDARY     65   LAYER   1   ROW     5   COL     5   RATE     519.792    
 BOUNDARY     66   LAYER   1   ROW     5   COL     6   RATE     519.792    
 BOUNDARY     67   LAYER   1   ROW     5   COL     7   RATE     519.792    
 BOUNDARY     68   LAYER   1   ROW     5   COL     8   RATE     519.792    
 BOUNDARY     69   LAYER   1   ROW     5   COL     9   RATE     519.792    
 BOUNDARY     70   LAYER   1   ROW     5   COL    10   RATE     519.792    
 BOUNDARY     71   LAYER   1   ROW     5   COL    11   RATE     519.792    
 BOUNDARY     72   LAYER   1   ROW     5   COL    12   RATE     519.792    
 BOUNDARY     73   LAYER   1   ROW     5   COL    13   RATE     519.792    
 BOUNDARY     74   LAYER   1   ROW     5   COL    14   RATE     519.792    
 BOUNDARY     75   LAYER   1   ROW     5   COL    15   RATE     519.792    
 BOUNDARY     76   LAYER   1   ROW     6   COL     1   RATE     519.792    
 BOUNDARY     77   LAYER   1   ROW     6   COL     2   RATE     519.792    
 BOUNDARY     78   LAYER   1   ROW     6   COL     3   RATE     519.792    
 BOUNDARY     79   LAYER   1   ROW     6   COL     4   RATE     519.792    
 BOUNDARY     80   LAYER   1   ROW     6   COL     5   RATE     519.792    
 BOUNDARY     81   LAYER   1   ROW     6   COL     6   RATE     519.792    
 BOUNDARY     82   LAYER   1   ROW     6   COL     7   RATE     519.792    
 BOUNDARY     83   LAYER   1   ROW     6   COL     8   RATE     519.792    
 BOUNDARY     84   LAYER   1   ROW     6   COL     9   RATE     519.792    
 BOUNDARY     85   LAYER   1   ROW     6   COL    10   RATE     519.792    
 BOUNDARY     86   LAYER   1   ROW     6   COL    11   RATE     519.792    
 BOUNDARY     87   LAYER   1   ROW     6   COL    12   RATE     519.792    
 BOUNDARY     88   LAYER   1   ROW     6   COL    13   RATE     519.792    
 BOUNDARY     89   LAYER   1   ROW     6   COL    14   RATE     519.792    
 BOUNDARY     90   LAYER   1   ROW     6   COL    15   RATE     519.792    
 BOUNDARY     91   LAYER   1   ROW     7   COL     1   RATE     519.792    
 BOUNDARY     92   LAYER   1   ROW     7   COL     2   RATE     519.792    
 BOUNDARY     93   LAYER   1   ROW     7   COL     3   RATE     519.792    
 BOUNDARY     94   LAYER   1   ROW     7   COL     4   RATE     519.792    
 BOUNDARY     95   LAYER   1   ROW     7   COL     5   RATE     519.792    
 BOUNDARY     96   LAYER   1   ROW     7   COL     6   RATE     519.792    
 BOUNDARY     97   LAYER   1   ROW     7   COL     7   RATE     519.792    
 BOUNDARY     98   LAYER   1   ROW     7   COL     8   RATE     519.792    
 BOUNDARY     99   LAYER   1   ROW     7   COL     9   RATE     519.792    
 BOUNDARY    100   LAYER   1   ROW     7   COL    10   RATE     519.792    
 BOUNDARY    101   LAYER   1   ROW     7   COL    11   RATE     519.792    
 BOUNDARY    102   LAYER   1   ROW     7   COL    12   RATE     519.792    
 BOUNDARY    103   LAYER   1   ROW     7   COL    13   RATE     519.792    
 BOUNDARY    104   LAYER   1   ROW     7   COL    14   RATE     519.792    
 BOUNDARY    105   LAYER   1   ROW     7   COL    15   RATE     519.792    
 BOUNDARY    106   LAYER   1   ROW     8   COL     1   RATE     519.792    
 BOUNDARY    107   LAYER   1   ROW     8   COL     2   RATE     519.792    
 BOUNDARY    108   LAYER   1   ROW     8   COL     3   RATE     519.792    
 BOUNDARY    109   LAYER   1   ROW     8   COL     4   RATE     519.792    
 BOUNDARY    110   LAYER   1   ROW     8   COL     5   RATE     519.792    
 BOUNDARY    111   LAYER   1   ROW     8   COL     6   RATE     519.792    
 BOUNDARY    112   LAYER   1   ROW     8   COL     7   RATE     519.792    
 BOUNDARY    113   LAYER   1   ROW     8   COL     8   RATE     519.792    
 BOUNDARY    114   LAYER   1   ROW     8   COL     9   RATE     519.792    
 BOUNDARY    115   LAYER   1   ROW     8   COL    10   RATE     519.792    
 BOUNDARY    116   LAYER   1   ROW     8   COL    11   RATE     519.792    
 BOUNDARY    117   LAYER   1   ROW     8   COL    12   RATE     519.792    
 BOUNDARY    118   LAYER   1   ROW     8   COL    13   RATE     519.792    
 BOUNDARY    119   LAYER   1   ROW     8   COL    14   RATE     519.792    
 BOUNDARY    120   LAYER   1   ROW     8   COL    15   RATE     519.792    
 BOUNDARY    121   LAYER   1   ROW     9   COL     1   RATE     519.792    
 BOUNDARY    122   LAYER   1   ROW     9   COL     2   RATE     519.792    
 BOUNDARY    123   LAYER   1   ROW     9   COL     3   RATE     519.792    
 BOUNDARY    124   LAYER   1   ROW     9   COL     4   RATE     519.792    
 BOUNDARY    125   LAYER   1   ROW     9   COL     5   RATE     519.792    
 BOUNDARY    126   LAYER   1   ROW     9   COL     6   RATE     519.792    
 BOUNDARY    127   LAYER   1   ROW     9   COL     7   RATE     519.792    
 BOUNDARY    128   LAYER   1   ROW     9   COL     8   RATE     519.792    
 BOUNDARY    129   LAYER   1   ROW     9   COL     9   RATE     519.792    
 BOUNDARY    130   LAYER   1   ROW     9   COL    10   RATE     519.792    
 BOUNDARY    131   LAYER   1   ROW     9   COL    11   RATE     519.792    
 BOUNDARY    132   LAYER   1   ROW     9   COL    12   RATE     519.792    
 BOUNDARY    133   LAYER   1   ROW     9   COL    13   RATE     519.792    
 BOUNDARY    134   LAYER   1   ROW     9   COL    14   RATE     519.792    
 BOUNDARY    135   LAYER   1   ROW     9   COL    15   RATE     519.792    
 BOUNDARY    136   LAYER   1   ROW    10   COL     1   RATE     519.792    
 BOUNDARY    137   LAYER   1   ROW    10   COL     2   RATE     519.792    
 BOUNDARY    138   LAYER   1   ROW    10   COL     3   RATE     519.792    
 BOUNDARY    139   LAYER   1   ROW    10   COL     4   RATE     519.792    
 BOUNDARY    140   LAYER   1   ROW    10   COL     5   RATE     519.792    
 BOUNDARY    141   LAYER   1   ROW    10   COL     6   RATE     519.792    
 BOUNDARY    142   LAYER   1   ROW    10   COL     7   RATE     519.792    
 BOUNDARY    143   LAYER   1   ROW    10   COL     8   RATE     519.792    
 BOUNDARY    144   LAYER   1   ROW    10   COL     9   RATE     519.792    
 BOUNDARY    145   LAYER   1   ROW    10   COL    10   RATE     519.792    
 BOUNDARY    146   LAYER   1   ROW    10   COL    11   RATE     519.792    
 BOUNDARY    147   LAYER   1   ROW    10   COL    12   RATE     519.792    
 BOUNDARY    148   LAYER   1   ROW    10   COL    13   RATE     519.792    
 BOUNDARY    149   LAYER   1   ROW    10   COL    14   RATE     519.792    
 BOUNDARY    150   LAYER   1   ROW    10   COL    15   RATE     519.792    
 UBDSV4 SAVING ET SEGS          ON UNIT   1016 AT TIME STEP      9, STRESS PERIOD      2

 ET SEGS            PERIOD  2   STEP  9
 BOUNDARY      1   LAYER   1   ROW     1   COL     1   RATE    -2.07224    
 BOUNDARY      2   LAYER   1   ROW     1   COL     2   RATE    -8.92487    
 BOUNDARY      3   LAYER   1   ROW     1   COL     3   RATE    -47.7718    
 BOUNDARY      4   LAYER   1   ROW     1   COL     4   RATE   -100.0000    
 BOUNDARY      5   LAYER   1   ROW     1   COL     5   RATE   -100.0000    
 BOUNDARY      6   LAYER   1   ROW     1   COL     6   RATE   -100.0000    
 BOUNDARY      7   LAYER   1   ROW     1   COL     7   RATE   -100.0000    
 BOUNDARY      8   LAYER   1   ROW     1   COL     8   RATE   -100.0000    
 BOUNDARY      9   LAYER   1   ROW     1   COL     9   RATE   -100.0000    
 BOUNDARY     10   LAYER   1   ROW     1   COL    10   RATE   -100.0000    
 BOUNDARY     11   LAYER   1   ROW     1   COL    11   RATE   -100.0000    
 BOUNDARY     12   LAYER   1   ROW     1   COL    12   RATE    -16.5203    
 BOUNDARY     13   LAYER   1   ROW     1   COL    13   RATE     0.00000    
 BOUNDARY     14   LAYER   1   ROW     1   COL    14   RATE     0.00000    
 BOUNDARY     15   LAYER   1   ROW     1   COL    15   RATE     0.00000    
 BOUNDARY     16   LAYER   1   ROW     2   COL     1   RATE     0.00000    
 BOUNDARY     17   LAYER   1   ROW     2   COL     2   RATE    -4.40969    
 BOUNDARY     18   LAYER   1   ROW     2   COL     3   RATE    -28.0139    
 BOUNDARY     19   LAYER   1   ROW     2   COL     4   RATE   -100.0000    
 BOUNDARY     20   LAYER   1   ROW     2   COL     5   RATE   -100.0000    
 BOUNDARY     21   LAYER   1   ROW     2   COL     6   RATE   -100.0000    
 BOUNDARY     22   LAYER   1   ROW     2   COL     7   RATE   -100.0000    
 BOUNDARY     23   LAYER   1   ROW     2   COL     8   RATE   -100.0000    
 BOUNDARY     24   LAYER   1   ROW     2   COL     9   RATE   -100.0000    
 BOUNDARY     25   LAYER   1   ROW     2   COL    10   RATE   -100.0000    
 BOUNDARY     26   LAYER   1   ROW     2   COL    11   RATE   -100.0000    
 BOUNDARY     27   LAYER   1   ROW     2   COL    12   RATE    -18.2600    
 BOUNDARY     28   LAYER   1   ROW     2   COL    13   RATE   -5.578057E-03
 BOUNDARY     29   LAYER   1   ROW     2   COL    14   RATE     0.00000    
 BOUNDARY     30   LAYER   1   ROW     2   COL    15   RATE     0.00000    
 BOUNDARY     31   LAYER   1   ROW     3   COL     1   RATE     0.00000    
 BOUNDARY     32   LAYER   1   ROW     3   COL     2   RATE     0.00000    
 BOUNDARY     33   LAYER   1   ROW     3   COL     3   RATE    -22.0251    
 BOUNDARY     34   LAYER   1   ROW     3   COL     4   RATE   -100.0000    
 BOUNDARY     35   LAYER   1   ROW     3   COL     5   RATE   -100.0000    
 BOUNDARY     36   LAYER   1   ROW     3   COL     6   RATE   -100.0000    
 BOUNDARY     37   LAYER   1   ROW     3   COL     7   RATE   -100.0000    
 BOUNDARY     38   LAYER   1   ROW     3   COL     8   RATE   -100.0000    
 BOUNDARY     39   LAYER   1   ROW     3   COL     9   RATE   -100.0000    
 BOUNDARY     40   LAYER   1   ROW     3   COL    10   RATE   -100.0000    
 BOUNDARY     41   LAYER   1   ROW     3   COL    11   RATE   -100.0000    
 BOUNDARY     42   LAYER   1   ROW     3   COL    12   RATE    -21.1943    
 BOUNDARY     43   LAYER   1   ROW     3   COL    13   RATE    -1.79287    
 BOUNDARY     44   LAYER   1   ROW     3   COL    14   RATE     0.00000    
 BOUNDARY     45   LAYER   1   ROW     3   COL    15   RATE     0.00000    
 BOUNDARY     46   LAYER   1   ROW     4   COL     1   RATE     0.00000    
 BOUNDARY     47   LAYER   1   ROW     4   COL     2   RATE    -2.89577    
 BOUNDARY     48   LAYER   1   ROW     4   COL     3   RATE    -25.8901    
 BOUNDARY     49   LAYER   1   ROW     4   COL     4   RATE   -100.0000    
 BOUNDARY     50   LAYER   1   ROW     4   COL     5   RATE   -100.0000    
 BOUNDARY     51   LAYER   1   ROW     4   COL     6   RATE   -100.0000    
 BOUNDARY     52   LAYER   1   ROW     4   COL     7   RATE   -100.0000    
 BOUNDARY     53   LAYER   1   ROW     4   COL     8   RATE   -100.0000    
 BOUNDARY     54   LAYER   1   ROW     4   COL     9   RATE   -100.0000    
 BOUNDARY     55   LAYER   1   ROW     4   COL    10   RATE   -100.0000    
 BOUNDARY     56   LAYER   1   ROW     4   COL    11   RATE   -100.0000    
 BOUNDARY     57   LAYER   1   ROW     4   COL    12   RATE    -23.9956    
 BOUNDARY     58   LAYER   1   ROW     4   COL    13   RATE    -3.25914    
 BOUNDARY     59   LAYER   1   ROW     4   COL    14   RATE     0.00000    
 BOUNDARY     60   LAYER   1   ROW     4   COL    15   RATE     0.00000    
 BOUNDARY     61   LAYER   1   ROW     5   COL     1   RATE     0.00000    
 BOUNDARY     62   LAYER   1   ROW     5   COL     2   RATE    -5.86906    
 BOUNDARY     63   LAYER   1   ROW     5   COL     3   RATE    -29.8776    
 BOUNDARY     64   LAYER   1   ROW     5   COL     4   RATE   -100.0000    
 BOUNDARY     65   LAYER   1   ROW     5   COL     5   RATE   -100.0000    
 BOUNDARY     66   LAYER   1   ROW     5   COL     6   RATE   -100.0000    
 BOUNDARY     67   LAYER   1   ROW     5   COL     7   RATE   -100.0000    
 BOUNDARY     68   LAYER   1   ROW     5   COL     8   RATE   -100.0000    
 BOUNDARY     69   LAYER   1   ROW     5   COL     9   RATE   -100.0000    
 BOUNDARY     70   LAYER   1   ROW     5   COL    10   RATE   -100.0000    
 BOUNDARY     71   LAYER   1   ROW     5   COL    11   RATE   -100.0000    
 BOUNDARY     72   LAYER   1   ROW     5   COL    12   RATE    -25.9380    
 BOUNDARY     73   LAYER   1   ROW     5   COL    13   RATE    -4.17904    
 BOUNDARY     74   LAYER   1   ROW     5   COL    14   RATE     0.00000    
 BOUNDARY     75   LAYER   1   ROW     5   COL    15   RATE     0.00000    
 BOUNDARY     76   LAYER   1   ROW     6   COL     1   RATE     0.00000    
 BOUNDARY     77   LAYER   1   ROW     6   COL     2   RATE    -4.44101    
 BOUNDARY     78   LAYER   1   ROW     6   COL     3   RATE    -33.2281    
 BOUNDARY     79   LAYER   1   ROW     6   COL     4   RATE   -100.0000    
 BOUNDARY     80   LAYER   1   ROW     6   COL     5   RATE   -100.0000    
 BOUNDARY     81   LAYER   1   ROW     6   COL     6   RATE   -100.0000    
 BOUNDARY     82   LAYER   1   ROW     6   COL     7   RATE   -100.0000    
 BOUNDARY     83   LAYER   1   ROW     6   COL     8   RATE   -100.0000    
 BOUNDARY     84   LAYER   1   ROW     6   COL     9   RATE   -100.0000    
 BOUNDARY     85   LAYER   1   ROW     6   COL    10   RATE   -100.0000    
 BOUNDARY     86   LAYER   1   ROW     6   COL    11   RATE   -100.0000    
 BOUNDARY     87   LAYER   1   ROW     6   COL    12   RATE    -26.5873    
 BOUNDARY     88   LAYER   1   ROW     6   COL    13   RATE    -4.13895    
 BOUNDARY     89   LAYER   1   ROW     6   COL    14   RATE     0.00000    
 BOUNDARY     90   LAYER   1   ROW     6   COL    15   RATE     0.00000    
 BOUNDARY     91   LAYER   1   ROW     7   COL     1   RATE     0.00000    
 BOUNDARY     92   LAYER   1   ROW     7   COL     2   RATE   -0.948515    
 BOUNDARY     93   LAYER   1   ROW     7   COL     3   RATE    -40.1145    
 BOUNDARY     94   LAYER   1   ROW     7   COL     4   RATE   -100.0000    
 BOUNDARY     95   LAYER   1   ROW     7   COL     5   RATE   -100.0000    
 BOUNDARY     96   LAYER   1   ROW     7   COL     6   RATE   -100.0000    
 BOUNDARY     97   LAYER   1   ROW     7   COL     7   RATE   -100.0000    
 BOUNDARY     98   LAYER   1   ROW     7   COL     8   RATE   -100.0000    
 BOUNDARY     99   LAYER   1   ROW     7   COL     9   RATE   -100.0000    
 BOUNDARY    100   LAYER   1   ROW     7   COL    10   RATE   -100.0000    
 BOUNDARY    101   LAYER   1   ROW     7   COL    11   RATE   -100.0000    
 BOUNDARY    102   LAYER   1   ROW     7   COL    12   RATE    -26.4219    
 BOUNDARY    103   LAYER   1   ROW     7   COL    13   RATE    -3.40072    
 BOUNDARY    104   LAYER   1   ROW     7   COL    14   RATE     0.00000    
 BOUNDARY    105   LAYER   1   ROW     7   COL    15   RATE     0.00000    
 BOUNDARY    106   LAYER   1   ROW     8   COL     1   RATE     0.00000    
 BOUNDARY    107   LAYER   1   ROW     8   COL     2   RATE    -11.0160    
 BOUNDARY    108   LAYER   1   ROW     8   COL     3   RATE   -100.0000    
 BOUNDARY    109   LAYER   1   ROW     8   COL     4   RATE   -100.0000    
 BOUNDARY    110   LAYER   1   ROW     8   COL     5   RATE   -100.0000    
 BOUNDARY    111   LAYER   1   ROW     8   COL     6   RATE   -100.0000    
 BOUNDARY    112   LAYER   1   ROW     8   COL     7   RATE   -100.0000    
 BOUNDARY    113   LAYER   1   ROW     8   COL     8   RATE   -100.0000    
 BOUNDARY    114   LAYER   1   ROW     8   COL     9   RATE   -100.0000    
 BOUNDARY    115   LAYER   1   ROW     8   COL    10   RATE   -100.0000    
 BOUNDARY    116   LAYER   1   ROW     8   COL    11   RATE   -100.0000    
 BOUNDARY    117   LAYER   1   ROW     8   COL    12   RATE    -26.8070    
 BOUNDARY    118   LAYER   1   ROW     8   COL    13   RATE    -3.39953    
 BOUNDARY    119   LAYER   1   ROW     8   COL    14   RATE     0.00000    
 BOUNDARY    120   LAYER   1   ROW     8   COL    15   RATE     0.00000    
 BOUNDARY    121   LAYER   1   ROW     9   COL     1   RATE    -18.5943    
 BOUNDARY    122   LAYER   1   ROW     9   COL     2   RATE    -59.2000    
 BOUNDARY    123   LAYER   1   ROW     9   COL     3   RATE   -100.0000    
 BOUNDARY    124   LAYER   1   ROW     9   COL     4   RATE   -100.0000    
 BOUNDARY    125   LAYER   1   ROW     9   COL     5   RATE   -100.0000    
 BOUNDARY    126   LAYER   1   ROW     9   COL     6   RATE   -100.0000    
 BOUNDARY    127   LAYER   1   ROW     9   COL     7   RATE   -100.0000    
 BOUNDARY    128   LAYER   1   ROW     9   COL     8   RATE   -100.0000    
 BOUNDARY    129   LAYER   1   ROW     9   COL     9   RATE   -100.0000    
 BOUNDARY    130   LAYER   1   ROW     9   COL    10   RATE   -100.0000    
 BOUNDARY    131   LAYER   1   ROW     9   COL    11   RATE   -100.0000    
 BOUNDARY    132   LAYER   1   ROW     9   COL    12   RATE    -27.9007    
 BOUNDARY    133   LAYER   1   ROW     9   COL    13   RATE    -4.21031    
 BOUNDARY    134   LAYER   1   ROW     9   COL    14   RATE     0.00000    
 BOUNDARY    135   LAYER   1   ROW     9   COL    15   RATE     0.00000    
 BOUNDARY    136   LAYER   1   ROW    10   COL     1   RATE    -67.4135    
 BOUNDARY    137   LAYER   1   ROW    10   COL     2   RATE   -100.0000    
 BOUNDARY    138   LAYER   1   ROW    10   COL     3   RATE   -100.0000    
 BOUNDARY    139   LAYER   1   ROW    10   COL     4   RATE   -100.0000    
 BOUNDARY    140   LAYER   1   ROW    10   COL     5   RATE   -100.0000    
 BOUNDARY    141   LAYER   1   ROW    10   COL     6   RATE   -100.0000    
 BOUNDARY    142   LAYER   1   ROW    10   COL     7   RATE   -100.0000    
 BOUNDARY    143   LAYER   1   ROW    10   COL     8   RATE   -100.0000    
 BOUNDARY    144   LAYER   1   ROW    10   COL     9   RATE   -100.0000    
 BOUNDARY    145   LAYER   1   ROW    10   COL    10   RATE   -100.0000    
 BOUNDARY    146   LAYER   1   ROW    10   COL    11   RATE   -100.0000    
 BOUNDARY    147   LAYER   1   ROW    10   COL    12   RATE    -28.6944    
 BOUNDARY    148   LAYER   1   ROW    10   COL    13   RATE    -4.73502    
 BOUNDARY    149   LAYER   1   ROW    10   COL    14   RATE     0.00000    
 BOUNDARY    150   LAYER   1   ROW    10   COL    15   RATE     0.00000    

 HEAD WILL BE SAVED ON UNIT 1017 AT END OF TIME STEP    9, STRESS PERIOD    2
WEL   no.    1 value from time series:   0.0000     for time: 10.000     to  11.00    
WEL   no.    2 value from time series:   0.0000     for time: 10.000     to  11.00    
RIV   no.    1 value from time series:   101.25     for time: 10.000     to  11.00    
RIV   no.    2 value from time series:   101.25     for time: 10.000     to  11.00    
RIV   no.    3 value from time series:   111.72     for time: 10.000     to  11.00    
RIV   no.    4 value from time series:   111.72     for time: 10.000     to  11.00    
RIV   no.    5 value from time series:   115.12     for time: 10.000     to  11.00    
RIV   no.    6 value from time series:   115.12     for time: 10.000     to  11.00    
RIV   no.    7 value from time series:   104.03     for time: 10.000     to  11.00    
RIV   no.    8 value from time series:   104.03     for time: 10.000     to  11.00    
RIV   no.    9 value from time series:   114.40     for time: 10.000     to  11.00    
RIV   no.   10 value from time series:   114.40     for time: 10.000     to  11.00    
WEL   no.    1 value from time series:   0.0000     for time: 10.000     to  11.00    
WEL   no.    2 value from time series:   0.0000     for time: 10.000     to  11.00    
RIV   no.    1 value from time series:   101.25     for time: 10.000     to  11.00    
RIV   no.    2 value from time series:   101.25     for time: 10.000     to  11.00    
RIV   no.    3 value from time series:   111.72     for time: 10.000     to  11.00    
RIV   no.    4 value from time series:   111.72     for time: 10.000     to  11.00    
RIV   no.    5 value from time series:   115.12     for time: 10.000     to  11.00    
RIV   no.    6 value from time series:   115.12     for time: 10.000     to  11.00    
RIV   no.    7 value from time series:   104.03     for time: 10.000     to  11.00    
RIV   no.    8 value from time series:   104.03     for time: 10.000     to  11.00    
RIV   no.    9 value from time series:   114.40     for time: 10.000     to  11.00    
RIV   no.   10 value from time series:   114.40     for time: 10.000     to  11.00    

 OUTPUT CONTROL FOR STRESS PERIOD    2   TIME STEP   10
    SAVE BUDGET
    SAVE HEAD
    SAVE HEAD FOR ALL LAYERS
 UBDSV1 SAVING          STORAGE ON UNIT   1016 AT TIME STEP     10, STRESS PERIOD      2
 UBDSV1 SAVING FLOW RIGHT FACE  ON UNIT   1016 AT TIME STEP     10, STRESS PERIOD      2
 UBDSV1 SAVING FLOW FRONT FACE  ON UNIT   1016 AT TIME STEP     10, STRESS PERIOD      2
 UBDSV1 SAVING FLOW LOWER FACE  ON UNIT   1016 AT TIME STEP     10, STRESS PERIOD      2
 UBDSV4 SAVING WELLS NEAR RIVER ON UNIT   1016 AT TIME STEP     10, STRESS PERIOD      2

 WELLS NEAR RIVER   PERIOD  2   STEP 10
 BOUNDARY      1   LAYER   2   ROW     3   COL     4   RATE     0.00000      WELL_1
 BOUNDARY      2   LAYER   2   ROW     8   COL     4   RATE     0.00000      WELL_2
 BOUNDARY      3   LAYER   2   ROW     4   COL     6   RATE   -10.00000    
 BOUNDARY      4   LAYER   2   ROW     5   COL     8   RATE    -20.0000    
 BOUNDARY      5   LAYER   2   ROW     2   COL     9   RATE    -40.0000    
 UBDSV4 SAVING RIVER            ON UNIT   1016 AT TIME STEP     10, STRESS PERIOD      2

 RIVER              PERIOD  2   STEP 10
 BOUNDARY      1   LAYER   1   ROW     1   COL    15   RATE    -4946.55    
 BOUNDARY      2   LAYER   1   ROW     2   COL    15   RATE    -6039.40      RIV2
 BOUNDARY      3   LAYER   1   ROW     3   COL    15   RATE    -2070.00      RIV3
 BOUNDARY      4   LAYER   1   ROW     4   COL    15   RATE    -3540.63    
 BOUNDARY      5   LAYER   1   ROW     5   COL    15   RATE    -2394.02    
 BOUNDARY      6   LAYER   1   ROW     6   COL    15   RATE    -1769.79    
 BOUNDARY      7   LAYER   1   ROW     7   COL    15   RATE    -6332.60      RIVX
 BOUNDARY      8   LAYER   1   ROW     8   COL    15   RATE    -6118.97      RIVX
 BOUNDARY      9   LAYER   1   ROW     9   COL    15   RATE    -1309.35      RIVX
 BOUNDARY     10   LAYER   1   ROW    10   COL    15   RATE    -2164.06    

 GHB LAKES          PERIOD  2   STEP 10
 BOUNDARY      1   LAYER   1   ROW     3   COL     1   RATE    -14420.3    
 BOUNDARY      2   LAYER   1   ROW     7   COL     1   RATE    -1818.42      GHB2_UPPER
 BOUNDARY      3   LAYER   1   ROW     7   COL     1   RATE    -13201.1      GHB2_LOWER
 UBDSV4 SAVING RECHARGE         ON UNIT   1016 AT TIME STEP     10, STRESS PERIOD      2

 RECHARGE           PERIOD  2   STEP 10
 BOUNDARY      1   LAYER   1   ROW     1   COL     1   RATE     521.875    
 BOUNDARY      2   LAYER   1   ROW     1   COL     2   RATE     521.875    
 BOUNDARY      3   LAYER   1   ROW     1   COL     3   RATE     521.875    
 BOUNDARY      4   LAYER   1   ROW     1   COL     4   RATE     521.875    
 BOUNDARY      5   LAYER   1   ROW     1   COL     5   RATE     521.875    
 BOUNDARY      6   LAYER   1   ROW     1   COL     6   RATE     521.875    
 BOUNDARY      7   LAYER   1   ROW     1   COL     7   RATE     521.875    
 BOUNDARY      8   LAYER   1   ROW     1   COL     8   RATE     521.875    
 BOUNDARY      9   LAYER   1   ROW     1   COL     9   RATE     521.875    
 BOUNDARY     10   LAYER   1   ROW     1   COL    10   RATE     521.875    
 BOUNDARY     11   LAYER   1   ROW     1   COL    11   RATE     521.875    
 BOUNDARY     12   LAYER   1   ROW     1   COL    12   RATE     521.875    
 BOUNDARY     13   LAYER   1   ROW     1   COL    13   RATE     521.875    
 BOUNDARY     14   LAYER   1   ROW     1   COL    14   RATE     521.875    
 BOUNDARY     15   LAYER   1   ROW     1   COL    15   RATE     521.875    
 BOUNDARY     16   LAYER   1   ROW     2   COL     1   RATE     521.875    
 BOUNDARY     17   LAYER   1   ROW     2   COL     2   RATE     521.875    
 BOUNDARY     18   LAYER   1   ROW     2   COL     3   RATE     521.875    
 BOUNDARY     19   LAYER   1   ROW     2   COL     4   RATE     521.875    
 BOUNDARY     20   LAYER   1   ROW     2   COL     5   RATE     521.875    
 BOUNDARY     21   LAYER   1   ROW     2   COL     6   RATE     521.875    
 BOUNDARY     22   LAYER   1   ROW     2   COL     7   RATE     521.875    
 BOUNDARY     23   LAYER   1   ROW     2   COL     8   RATE     521.875    
 BOUNDARY     24   LAYER   1   ROW     2   COL     9   RATE     521.875    
 BOUNDARY     25   LAYER   1   ROW     2   COL    10   RATE     521.875    
 BOUNDARY     26   LAYER   1   ROW     2   COL    11   RATE     521.875    
 BOUNDARY     27   LAYER   1   ROW     2   COL    12   RATE     521.875    
 BOUNDARY     28   LAYER   1   ROW     2   COL    13   RATE     521.875    
 BOUNDARY     29   LAYER   1   ROW     2   COL    14   RATE     521.875    
 BOUNDARY     30   LAYER   1   ROW     2   COL    15   RATE     521.875    
 BOUNDARY     31   LAYER   1   ROW     3   COL     1   RATE     521.875    
 BOUNDARY     32   LAYER   1   ROW     3   COL     2   RATE     521.875    
 BOUNDARY     33   LAYER   1   ROW     3   COL     3   RATE     521.875    
 BOUNDARY     34   LAYER   1   ROW     3   COL     4   RATE     521.875    
 BOUNDARY     35   LAYER   1   ROW     3   COL     5   RATE     521.875    
 BOUNDARY     36   LAYER   1   ROW     3   COL     6   RATE     521.875    
 BOUNDARY     37   LAYER   1   ROW     3   COL     7   RATE     521.875    
 BOUNDARY     38   LAYER   1   ROW     3   COL     8   RATE     521.875    
 BOUNDARY     39   LAYER   1   ROW     3   COL     9   RATE     521.875    
 BOUNDARY     40   LAYER   1   ROW     3   COL    10   RATE     521.875    
 BOUNDARY     41   LAYER   1   ROW     3   COL    11   RATE     521.875    
 BOUNDARY     42   LAYER   1   ROW     3   COL    12   RATE     521.875    
 BOUNDARY     43   LAYER   1   ROW     3   COL    13   RATE     521.875    
 BOUNDARY     44   LAYER   1   ROW     3   COL    14   RATE     521.875    
 BOUNDARY     45   LAYER   1   ROW     3   COL    15   RATE     521.875    
 BOUNDARY     46   LAYER   1   ROW     4   COL     1   RATE     521.875    
 BOUNDARY     47   LAYER   1   ROW     4   COL     2   RATE     521.875    
 BOUNDARY     48   LAYER   1   ROW     4   COL     3   RATE     521.875    
 BOUNDARY     49   LAYER   1   ROW     4   COL     4   RATE     521.875    
 BOUNDARY     50   LAYER   1   ROW     4   COL     5   RATE     521.875    
 BOUNDARY     51   LAYER   1   ROW     4   COL     6   RATE     521.875    
 BOUNDARY     52   LAYER   1   ROW     4   COL     7   RATE     521.875    
 BOUNDARY     53   LAYER   1   ROW     4   COL     8   RATE     521.875    
 BOUNDARY     54   LAYER   1   ROW     4   COL     9   RATE     521.875    
 BOUNDARY     55   LAYER   1   ROW     4   COL    10   RATE     521.875    
 BOUNDARY     56   LAYER   1   ROW     4   COL    11   RATE     521.875    
 BOUNDARY     57   LAYER   1   ROW     4   COL    12   RATE     521.875    
 BOUNDARY     58   LAYER   1   ROW     4   COL    13   RATE     521.875    
 BOUNDARY     59   LAYER   1   ROW     4   COL    14   RATE     521.875    
 BOUNDARY     60   LAYER   1   ROW     4   COL    15   RATE     521.875    
 BOUNDARY     61   LAYER   1   ROW     5   COL     1   RATE     521.875    
 BOUNDARY     62   LAYER   1   ROW     5   COL     2   RATE     521.875    
 BOUNDARY     63   LAYER   1   ROW     5   COL     3   RATE     521.875    
 BOUNDARY     64   LAYER   1   ROW     5   COL     4   RATE     521.875    
 BOUNDARY     65   LAYER   1   ROW     5   COL     5   RATE     521.875    
 BOUNDARY     66   LAYER   1   ROW     5   COL     6   RATE     521.875    
 BOUNDARY     67   LAYER   1   ROW     5   COL     7   RATE     521.875    
 BOUNDARY     68   LAYER   1   ROW     5   COL     8   RATE     521.875    
 BOUNDARY     69   LAYER   1   ROW     5   COL     9   RATE     521.875    
 BOUNDARY     70   LAYER   1   ROW     5   COL    10   RATE     521.875    
 BOUNDARY     71   LAYER   1   ROW     5   COL    11   RATE     521.875    
 BOUNDARY     72   LAYER   1   ROW     5   COL    12   RATE     521.875    
 BOUNDARY     73   LAYER   1   ROW     5   COL    13   RATE     521.875    
 BOUNDARY     74   LAYER   1   ROW     5   COL    14   RATE     521.875    
 BOUNDARY     75   LAYER   1   ROW     5   COL    15   RATE     521.875    
 BOUNDARY     76   LAYER   1   ROW     6   COL     1   RATE     521.875    
 BOUNDARY     77   LAYER   1   ROW     6   COL     2   RATE     521.875    
 BOUNDARY     78   LAYER   1   ROW     6   COL     3   RATE     521.875    
 BOUNDARY     79   LAYER   1   ROW     6   COL     4   RATE     521.875    
 BOUNDARY     80   LAYER   1   ROW     6   COL     5   RATE     521.875    
 BOUNDARY     81   LAYER   1   ROW     6   COL     6   RATE     521.875    
 BOUNDARY     82   LAYER   1   ROW     6   COL     7   RATE     521.875    
 BOUNDARY     83   LAYER   1   ROW     6   COL     8   RATE     521.875    
 BOUNDARY     84   LAYER   1   ROW     6   COL     9   RATE     521.875    
 BOUNDARY     85   LAYER   1   ROW     6   COL    10   RATE     521.875    
 BOUNDARY     86   LAYER   1   ROW     6   COL    11   RATE     521.875    
 BOUNDARY     87   LAYER   1   ROW     6   COL    12   RATE     521.875    
 BOUNDARY     88   LAYER   1   ROW     6   COL    13   RATE     521.875    
 BOUNDARY     89   LAYER   1   ROW     6   COL    14   RATE     521.875    
 BOUNDARY     90   LAYER   1   ROW     6   COL    15   RATE     521.875    
 BOUNDARY     91   LAYER   1   ROW     7   COL     1   RATE     521.875    
 BOUNDARY     92   LAYER   1   ROW     7   COL     2   RATE     521.875    
 BOUNDARY     93   LAYER   1   ROW     7   COL     3   RATE     521.875    
 BOUNDARY     94   LAYER   1   ROW     7   COL     4   RATE     521.875    
 BOUNDARY     95   LAYER   1   ROW     7   COL     5   RATE     521.875    
 BOUNDARY     96   LAYER   1   ROW     7   COL     6   RATE     521.875    
 BOUNDARY     97   LAYER   1   ROW     7   COL     7   RATE     521.875    
 BOUNDARY     98   LAYER   1   ROW     7   COL     8   RATE     521.875    
 BOUNDARY     99   LAYER   1   ROW     7   COL     9   RATE     521.875    
 BOUNDARY    100   LAYER   1   ROW     7   COL    10   RATE     521.875    
 BOUNDARY    101   LAYER   1   ROW     7   COL    11   RATE     521.875    
 BOUNDARY    102   LAYER   1   ROW     7   COL    12   RATE     521.875    
 BOUNDARY    103   LAYER   1   ROW     7   COL    13   RATE     521.875    
 BOUNDARY    104   LAYER   1   ROW     7   COL    14   RATE     521.875    
 BOUNDARY    105   LAYER   1   ROW     7   COL    15   RATE     521.875    
 BOUNDARY    106   LAYER   1   ROW     8   COL     1   RATE     521.875    
 BOUNDARY    107   LAYER   1   ROW     8   COL     2   RATE     521.875    
 BOUNDARY    108   LAYER   1   ROW     8   COL     3   RATE     521.875    
 BOUNDARY    109   LAYER   1   ROW     8   COL     4   RATE     521.875    
 BOUNDARY    110   LAYER   1   ROW     8   COL     5   RATE     521.875    
 BOUNDARY    111   LAYER   1   ROW     8   COL     6   RATE     521.875    
 BOUNDARY    112   LAYER   1   ROW     8   COL     7   RATE     521.875    
 BOUNDARY    113   LAYER   1   ROW     8   COL     8   RATE     521.875    
 BOUNDARY    114   LAYER   1   ROW     8   COL     9   RATE     521.875    
 BOUNDARY    115   LAYER   1   ROW     8   COL    10   RATE     521.875    
 BOUNDARY    116   LAYER   1   ROW     8   COL    11   RATE     521.875    
 BOUNDARY    117   LAYER   1   ROW     8   COL    12   RATE     521.875    
 BOUNDARY    118   LAYER   1   ROW     8   COL    13   RATE     521.875    
 BOUNDARY    119   LAYER   1   ROW     8   COL    14   RATE     521.875    
 BOUNDARY    120   LAYER   1   ROW     8   COL    15   RATE     521.875    
 BOUNDARY    121   LAYER   1   ROW     9   COL     1   RATE     521.875    
 BOUNDARY    122   LAYER   1   ROW     9   COL     2   RATE     521.875    
 BOUNDARY    123   LAYER   1   ROW     9   COL     3   RATE     521.875    
 BOUNDARY    124   LAYER   1   ROW     9   COL     4   RATE     521.875    
 BOUNDARY    125   LAYER   1   ROW     9   COL     5   RATE     521.875    
 BOUNDARY    126   LAYER   1   ROW     9   COL     6   RATE     521.875    
 BOUNDARY    127   LAYER   1   ROW     9   COL     7   RATE     521.875    
 BOUNDARY    128   LAYER   1   ROW     9   COL     8   RATE     521.875    
 BOUNDARY    129   LAYER   1   ROW     9   COL     9   RATE     521.875    
 BOUNDARY    130   LAYER   1   ROW     9   COL    10   RATE     521.875    
 BOUNDARY    131   LAYER   1   ROW     9   COL    11   RATE     521.875    
 BOUNDARY    132   LAYER   1   ROW     9   COL    12   RATE     521.875    
 BOUNDARY    133   LAYER   1   ROW     9   COL    13   RATE     521.875    
 BOUNDARY    134   LAYER   1   ROW     9   COL    14   RATE     521.875    
 BOUNDARY    135   LAYER   1   ROW     9   COL    15   RATE     521.875    
 BOUNDARY    136   LAYER   1   ROW    10   COL     1   RATE     521.875    
 BOUNDARY    137   LAYER   1   ROW    10   COL     2   RATE     521.875    
 BOUNDARY    138   LAYER   1   ROW    10   COL     3   RATE     521.875    
 BOUNDARY    139   LAYER   1   ROW    10   COL     4   RATE     521.875    
 BOUNDARY    140   LAYER   1   ROW    10   COL     5   RATE     521.875    
 BOUNDARY    141   LAYER   1   ROW    10   COL     6   RATE     521.875    
 BOUNDARY    142   LAYER   1   ROW    10   COL     7   RATE     521.875    
 BOUNDARY    143   LAYER   1   ROW    10   COL     8   RATE     521.875    
 BOUNDARY    144   LAYER   1   ROW    10   COL     9   RATE     521.875    
 BOUNDARY    145   LAYER   1   ROW    10   COL    10   RATE     521.875    
 BOUNDARY    146   LAYER   1   ROW    10   COL    11   RATE     521.875    
 BOUNDARY    147   LAYER   1   ROW    10   COL    12   RATE     521.875    
 BOUNDARY    148   LAYER   1   ROW    10   COL    13   RATE     521.875    
 BOUNDARY    149   LAYER   1   ROW    10   COL    14   RATE     521.875    
 BOUNDARY    150   LAYER   1   ROW    10   COL    15   RATE     521.875    
 UBDSV4 SAVING ET SEGS          ON UNIT   1016 AT TIME STEP     10, STRESS PERIOD      2

 ET SEGS            PERIOD  2   STEP 10
 BOUNDARY      1   LAYER   1   ROW     1   COL     1   RATE    -2.07389    
 BOUNDARY      2   LAYER   1   ROW     1   COL     2   RATE    -8.92653    
 BOUNDARY      3   LAYER   1   ROW     1   COL     3   RATE    -47.8005    
 BOUNDARY      4   LAYER   1   ROW     1   COL     4   RATE   -100.0000    
 BOUNDARY      5   LAYER   1   ROW     1   COL     5   RATE   -100.0000    
 BOUNDARY      6   LAYER   1   ROW     1   COL     6   RATE   -100.0000    
 BOUNDARY      7   LAYER   1   ROW     1   COL     7   RATE   -100.0000    
 BOUNDARY      8   LAYER   1   ROW     1   COL     8   RATE   -100.0000    
 BOUNDARY      9   LAYER   1   ROW     1   COL     9   RATE   -100.0000    
 BOUNDARY     10   LAYER   1   ROW     1   COL    10   RATE   -100.0000    
 BOUNDARY     11   LAYER   1   ROW     1   COL    11   RATE   -100.0000    
 BOUNDARY     12   LAYER   1   ROW     1   COL    12   RATE    -16.5259    
 BOUNDARY     13   LAYER   1   ROW     1   COL    13   RATE     0.00000    
 BOUNDARY     14   LAYER   1   ROW     1   COL    14   RATE     0.00000    
 BOUNDARY     15   LAYER   1   ROW     1   COL    15   RATE     0.00000    
 BOUNDARY     16   LAYER   1   ROW     2   COL     1   RATE     0.00000    
 BOUNDARY     17   LAYER   1   ROW     2   COL     2   RATE    -4.41134    
 BOUNDARY     18   LAYER   1   ROW     2   COL     3   RATE    -28.0194    
 BOUNDARY     19   LAYER   1   ROW     2   COL     4   RATE   -100.0000    
 BOUNDARY     20   LAYER   1   ROW     2   COL     5   RATE   -100.0000    
 BOUNDARY     21   LAYER   1   ROW     2   COL     6   RATE   -100.0000    
 BOUNDARY     22   LAYER   1   ROW     2   COL     7   RATE   -100.0000    
 BOUNDARY     23   LAYER   1   ROW     2   COL     8   RATE   -100.0000    
 BOUNDARY     24   LAYER   1   ROW     2   COL     9   RATE   -100.0000    
 BOUNDARY     25   LAYER   1   ROW     2   COL    10   RATE   -100.0000    
 BOUNDARY     26   LAYER   1   ROW     2   COL    11   RATE   -100.0000    
 BOUNDARY     27   LAYER   1   ROW     2   COL    12   RATE    -18.2656    
 BOUNDARY     28   LAYER   1   ROW     2   COL    13   RATE   -7.871732E-03
 BOUNDARY     29   LAYER   1   ROW     2   COL    14   RATE     0.00000    
 BOUNDARY     30   LAYER   1   ROW     2   COL    15   RATE     0.00000    
 BOUNDARY     31   LAYER   1   ROW     3   COL     1   RATE     0.00000    
 BOUNDARY     32   LAYER   1   ROW     3   COL     2   RATE     0.00000    
 BOUNDARY     33   LAYER   1   ROW     3   COL     3   RATE    -22.0306    
 BOUNDARY     34   LAYER   1   ROW     3   COL     4   RATE   -100.0000    
 BOUNDARY     35   LAYER   1   ROW     3   COL     5   RATE   -100.0000    
 BOUNDARY     36   LAYER   1   ROW     3   COL     6   RATE   -100.0000    
 BOUNDARY     37   LAYER   1   ROW     3   COL     7   RATE   -100.0000    
 BOUNDARY     38   LAYER   1   ROW     3   COL     8   RATE   -100.0000    
 BOUNDARY     39   LAYER   1   ROW     3   COL     9   RATE   -100.0000    
 BOUNDARY     40   LAYER   1   ROW     3   COL    10   RATE   -100.0000    
 BOUNDARY     41   LAYER   1   ROW     3   COL    11   RATE   -100.0000    
 BOUNDARY     42   LAYER   1   ROW     3   COL    12   RATE    -21.1999    
 BOUNDARY     43   LAYER   1   ROW     3   COL    13   RATE    -1.79504    
 BOUNDARY     44   LAYER   1   ROW     3   COL    14   RATE     0.00000    
 BOUNDARY     45   LAYER   1   ROW     3   COL    15   RATE     0.00000    
 BOUNDARY     46   LAYER   1   ROW     4   COL     1   RATE     0.00000    
 BOUNDARY     47   LAYER   1   ROW     4   COL     2   RATE    -2.89741    
 BOUNDARY     48   LAYER   1   ROW     4   COL     3   RATE    -25.8956    
 BOUNDARY     49   LAYER   1   ROW     4   COL     4   RATE   -100.0000    
 BOUNDARY     50   LAYER   1   ROW     4   COL     5   RATE   -100.0000    
 BOUNDARY     51   LAYER   1   ROW     4   COL     6   RATE   -100.0000    
 BOUNDARY     52   LAYER   1   ROW     4   COL     7   RATE   -100.0000    
 BOUNDARY     53   LAYER   1   ROW     4   COL     8   RATE   -100.0000    
 BOUNDARY     54   LAYER   1   ROW     4   COL     9   RATE   -100.0000    
 BOUNDARY     55   LAYER   1   ROW     4   COL    10   RATE   -100.0000    
 BOUNDARY     56   LAYER   1   ROW     4   COL    11   RATE   -100.0000    
 BOUNDARY     57   LAYER   1   ROW     4   COL    12   RATE    -24.0012    
 BOUNDARY     58   LAYER   1   ROW     4   COL    13   RATE    -3.26128    
 BOUNDARY     59   LAYER   1   ROW     4   COL    14   RATE     0.00000    
 BOUNDARY     60   LAYER   1   ROW     4   COL    15   RATE     0.00000    
 BOUNDARY     61   LAYER   1   ROW     5   COL     1   RATE     0.00000    
 BOUNDARY     62   LAYER   1   ROW     5   COL     2   RATE    -5.87071    
 BOUNDARY     63   LAYER   1   ROW     5   COL     3   RATE    -29.8831    
 BOUNDARY     64   LAYER   1   ROW     5   COL     4   RATE   -100.0000    
 BOUNDARY     65   LAYER   1   ROW     5   COL     5   RATE   -100.0000    
 BOUNDARY     66   LAYER   1   ROW     5   COL     6   RATE   -100.0000    
 BOUNDARY     67   LAYER   1   ROW     5   COL     7   RATE   -100.0000    
 BOUNDARY     68   LAYER   1   ROW     5   COL     8   RATE   -100.0000    
 BOUNDARY     69   LAYER   1   ROW     5   COL     9   RATE   -100.0000    
 BOUNDARY     70   LAYER   1   ROW     5   COL    10   RATE   -100.0000    
 BOUNDARY     71   LAYER   1   ROW     5   COL    11   RATE   -100.0000    
 BOUNDARY     72   LAYER   1   ROW     5   COL    12   RATE    -25.9436    
 BOUNDARY     73   LAYER   1   ROW     5   COL    13   RATE    -4.18095    
 BOUNDARY     74   LAYER   1   ROW     5   COL    14   RATE     0.00000    
 BOUNDARY     75   LAYER   1   ROW     5   COL    15   RATE     0.00000    
 BOUNDARY     76   LAYER   1   ROW     6   COL     1   RATE     0.00000    
 BOUNDARY     77   LAYER   1   ROW     6   COL     2   RATE    -4.44264    
 BOUNDARY     78   LAYER   1   ROW     6   COL     3   RATE    -33.2568    
 BOUNDARY     79   LAYER   1   ROW     6   COL     4   RATE   -100.0000    
 BOUNDARY     80   LAYER   1   ROW     6   COL     5   RATE   -100.0000    
 BOUNDARY     81   LAYER   1   ROW     6   COL     6   RATE   -100.0000    
 BOUNDARY     82   LAYER   1   ROW     6   COL     7   RATE   -100.0000    
 BOUNDARY     83   LAYER   1   ROW     6   COL     8   RATE   -100.0000    
 BOUNDARY     84   LAYER   1   ROW     6   COL     9   RATE   -100.0000    
 BOUNDARY     85   LAYER   1   ROW     6   COL    10   RATE   -100.0000    
 BOUNDARY     86   LAYER   1   ROW     6   COL    11   RATE   -100.0000    
 BOUNDARY     87   LAYER   1   ROW     6   COL    12   RATE    -26.5930    
 BOUNDARY     88   LAYER   1   ROW     6   COL    13   RATE    -4.14086    
 BOUNDARY     89   LAYER   1   ROW     6   COL    14   RATE     0.00000    
 BOUNDARY     90   LAYER   1   ROW     6   COL    15   RATE     0.00000    
 BOUNDARY     91   LAYER   1   ROW     7   COL     1   RATE     0.00000    
 BOUNDARY     92   LAYER   1   ROW     7   COL     2   RATE   -0.949967    
 BOUNDARY     93   LAYER   1   ROW     7   COL     3   RATE    -40.1431    
 BOUNDARY     94   LAYER   1   ROW     7   COL     4   RATE   -100.0000    
 BOUNDARY     95   LAYER   1   ROW     7   COL     5   RATE   -100.0000    
 BOUNDARY     96   LAYER   1   ROW     7   COL     6   RATE   -100.0000    
 BOUNDARY     97   LAYER   1   ROW     7   COL     7   RATE   -100.0000    
 BOUNDARY     98   LAYER   1   ROW     7   COL     8   RATE   -100.0000    
 BOUNDARY     99   LAYER   1   ROW     7   COL     9   RATE   -100.0000    
 BOUNDARY    100   LAYER   1   ROW     7   COL    10   RATE   -100.0000    
 BOUNDARY    101   LAYER   1   ROW     7   COL    11   RATE   -100.0000    
 BOUNDARY    102   LAYER   1   ROW     7   COL    12   RATE    -26.4276    
 BOUNDARY    103   LAYER   1   ROW     7   COL    13   RATE    -3.40285    
 BOUNDARY    104   LAYER   1   ROW     7   COL    14   RATE     0.00000    
 BOUNDARY    105   LAYER   1   ROW     7   COL    15   RATE     0.00000    
 BOUNDARY    106   LAYER   1   ROW     8   COL     1   RATE     0.00000    
 BOUNDARY    107   LAYER   1   ROW     8   COL     2   RATE    -11.0214    
 BOUNDARY    108   LAYER   1   ROW     8   COL     3   RATE   -100.0000    
 BOUNDARY    109   LAYER   1   ROW     8   COL     4   RATE   -100.0000    
 BOUNDARY    110   LAYER   1   ROW     8   COL     5   RATE   -100.0000    
 BOUNDARY    111   LAYER   1   ROW     8   COL     6   RATE   -100.0000    
 BOUNDARY    112   LAYER   1   ROW     8   COL     7   RATE   -100.0000    
 BOUNDARY    113   LAYER   1   ROW     8   COL     8   RATE   -100.0000    
 BOUNDARY    114   LAYER   1   ROW     8   COL     9   RATE   -100.0000    
 BOUNDARY    115   LAYER   1   ROW     8   COL    10   RATE   -100.0000    
 BOUNDARY    116   LAYER   1   ROW     8   COL    11   RATE   -100.0000    
 BOUNDARY    117   LAYER   1   ROW     8   COL    12   RATE    -26.8127    
 BOUNDARY    118   LAYER   1   ROW     8   COL    13   RATE    -3.40169    
 BOUNDARY    119   LAYER   1   ROW     8   COL    14   RATE     0.00000    
 BOUNDARY    120   LAYER   1   ROW     8   COL    15   RATE     0.00000    
 BOUNDARY    121   LAYER   1   ROW     9   COL     1   RATE    -18.5998    
 BOUNDARY    122   LAYER   1   ROW     9   COL     2   RATE    -59.2288    
 BOUNDARY    123   LAYER   1   ROW     9   COL     3   RATE   -100.0000    
 BOUNDARY    124   LAYER   1   ROW     9   COL     4   RATE   -100.0000    
 BOUNDARY    125   LAYER   1   ROW     9   COL     5   RATE   -100.0000    
 BOUNDARY    126   LAYER   1   ROW     9   COL     6   RATE   -100.0000    
 BOUNDARY    127   LAYER   1   ROW     9   COL     7   RATE   -100.0000    
 BOUNDARY    128   LAYER   1   ROW     9   COL     8   RATE   -100.0000    
 BOUNDARY    129   LAYER   1   ROW     9   COL     9   RATE   -100.0000    
 BOUNDARY    130   LAYER   1   ROW     9   COL    10   RATE   -100.0000    
 BOUNDARY    131   LAYER   1   ROW     9   COL    11   RATE   -100.0000    
 BOUNDARY    132   LAYER   1   ROW     9   COL    12   RATE    -27.9063    
 BOUNDARY    133   LAYER   1   ROW     9   COL    13   RATE    -4.21257    
 BOUNDARY    134   LAYER   1   ROW     9   COL    14   RATE     0.00000    
 BOUNDARY    135   LAYER   1   ROW     9   COL    15   RATE     0.00000    
 BOUNDARY    136   LAYER   1   ROW    10   COL     1   RATE    -67.4423    
 BOUNDARY    137   LAYER   1   ROW    10   COL     2   RATE   -100.0000    
 BOUNDARY    138   LAYER   1   ROW    10   COL     3   RATE   -100.0000    
 BOUNDARY    139   LAYER   1   ROW    10   COL     4   RATE   -100.0000    
 BOUNDARY    140   LAYER   1   ROW    10   COL     5   RATE   -100.0000    
 BOUNDARY    141   LAYER   1   ROW    10   COL     6   RATE   -100.0000    
 BOUNDARY    142   LAYER   1   ROW    10   COL     7   RATE   -100.0000    
 BOUNDARY    143   LAYER   1   ROW    10   COL     8   RATE   -100.0000    
 BOUNDARY    144   LAYER   1   ROW    10   COL     9   RATE   -100.0000    
 BOUNDARY    145   LAYER   1   ROW    10   COL    10   RATE   -100.0000    
 BOUNDARY    146   LAYER   1   ROW    10   COL    11   RATE   -100.0000    
 BOUNDARY    147   LAYER   1   ROW    10   COL    12   RATE    -28.7001    
 BOUNDARY    148   LAYER   1   ROW    10   COL    13   RATE    -4.73729    
 BOUNDARY    149   LAYER   1   ROW    10   COL    14   RATE     0.00000    
 BOUNDARY    150   LAYER   1   ROW    10   COL    15   RATE     0.00000    

 HEAD WILL BE SAVED ON UNIT 1017 AT END OF TIME STEP   10, STRESS PERIOD    2
WEL   no.    1 value from time series:   0.0000     for time:  11.00     to  12.00    
WEL   no.    2 value from time series:   0.0000     for time:  11.00     to  12.00    
RIV   no.    1 value from time series:   101.00     for time:  11.00     to  12.00    
RIV   no.    2 value from time series:   101.00     for time:  11.00     to  12.00    
RIV   no.    3 value from time series:   111.50     for time:  11.00     to  12.00    
RIV   no.    4 value from time series:   111.50     for time:  11.00     to  12.00    
RIV   no.    5 value from time series:   115.10     for time:  11.00     to  12.00    
RIV   no.    6 value from time series:   115.10     for time:  11.00     to  12.00    
RIV   no.    7 value from time series:   104.00     for time:  11.00     to  12.00    
RIV   no.    8 value from time series:   104.00     for time:  11.00     to  12.00    
RIV   no.    9 value from time series:   113.50     for time:  11.00     to  12.00    
RIV   no.   10 value from time series:   113.50     for time:  11.00     to  12.00    
WEL   no.    1 value from time series:   0.0000     for time:  11.00     to  12.00    
WEL   no.    2 value from time series:   0.0000     for time:  11.00     to  12.00    
RIV   no.    1 value from time series:   101.00     for time:  11.00     to  12.00    
RIV   no.    2 value from time series:   101.00     for time:  11.00     to  12.00    
RIV   no.    3 value from time series:   111.50     for time:  11.00     to  12.00    
RIV   no.    4 value from time series:   111.50     for time:  11.00     to  12.00    
RIV   no.    5 value from time series:   115.10     for time:  11.00     to  12.00    
RIV   no.    6 value from time series:   115.10     for time:  11.00     to  12.00    
RIV   no.    7 value from time series:   104.00     for time:  11.00     to  12.00    
RIV   no.    8 value from time series:   104.00     for time:  11.00     to  12.00    
RIV   no.    9 value from time series:   113.50     for time:  11.00     to  12.00    
RIV   no.   10 value from time series:   113.50     for time:  11.00     to  12.00    

 NO OUTPUT CONTROL FOR STRESS PERIOD    2   TIME STEP   11
WEL   no.    1 value from time series:   0.0000     for time:  12.00     to  13.00    
WEL   no.    2 value from time series:   0.0000     for time:  12.00     to  13.00    
RIV   no.    1 value from time series:   101.00     for time:  12.00     to  13.00    
RIV   no.    2 value from time series:   101.00     for time:  12.00     to  13.00    
RIV   no.    3 value from time series:   111.50     for time:  12.00     to  13.00    
RIV   no.    4 value from time series:   111.50     for time:  12.00     to  13.00    
RIV   no.    5 value from time series:   115.10     for time:  12.00     to  13.00    
RIV   no.    6 value from time series:   115.10     for time:  12.00     to  13.00    
RIV   no.    7 value from time series:   104.00     for time:  12.00     to  13.00    
RIV   no.    8 value from time series:   104.00     for time:  12.00     to  13.00    
RIV   no.    9 value from time series:   113.50     for time:  12.00     to  13.00    
RIV   no.   10 value from time series:   113.50     for time:  12.00     to  13.00    
WEL   no.    1 value from time series:   0.0000     for time:  12.00     to  13.00    
WEL   no.    2 value from time series:   0.0000     for time:  12.00     to  13.00    
RIV   no.    1 value from time series:   101.00     for time:  12.00     to  13.00    
RIV   no.    2 value from time series:   101.00     for time:  12.00     to  13.00    
RIV   no.    3 value from time series:   111.50     for time:  12.00     to  13.00    
RIV   no.    4 value from time series:   111.50     for time:  12.00     to  13.00    
RIV   no.    5 value from time series:   115.10     for time:  12.00     to  13.00    
RIV   no.    6 value from time series:   115.10     for time:  12.00     to  13.00    
RIV   no.    7 value from time series:   104.00     for time:  12.00     to  13.00    
RIV   no.    8 value from time series:   104.00     for time:  12.00     to  13.00    
RIV   no.    9 value from time series:   113.50     for time:  12.00     to  13.00    
RIV   no.   10 value from time series:   113.50     for time:  12.00     to  13.00    

 NO OUTPUT CONTROL FOR STRESS PERIOD    2   TIME STEP   12
WEL   no.    1 value from time series:   0.0000     for time:  13.00     to  14.00    
WEL   no.    2 value from time series:   0.0000     for time:  13.00     to  14.00    
RIV   no.    1 value from time series:   101.00     for time:  13.00     to  14.00    
RIV   no.    2 value from time series:   101.00     for time:  13.00     to  14.00    
RIV   no.    3 value from time series:   111.50     for time:  13.00     to  14.00    
RIV   no.    4 value from time series:   111.50     for time:  13.00     to  14.00    
RIV   no.    5 value from time series:   115.10     for time:  13.00     to  14.00    
RIV   no.    6 value from time series:   115.10     for time:  13.00     to  14.00    
RIV   no.    7 value from time series:   104.00     for time:  13.00     to  14.00    
RIV   no.    8 value from time series:   104.00     for time:  13.00     to  14.00    
RIV   no.    9 value from time series:   113.50     for time:  13.00     to  14.00    
RIV   no.   10 value from time series:   113.50     for time:  13.00     to  14.00    
WEL   no.    1 value from time series:   0.0000     for time:  13.00     to  14.00    
WEL   no.    2 value from time series:   0.0000     for time:  13.00     to  14.00    
RIV   no.    1 value from time series:   101.00     for time:  13.00     to  14.00    
RIV   no.    2 value from time series:   101.00     for time:  13.00     to  14.00    
RIV   no.    3 value from time series:   111.50     for time:  13.00     to  14.00    
RIV   no.    4 value from time series:   111.50     for time:  13.00     to  14.00    
RIV   no.    5 value from time series:   115.10     for time:  13.00     to  14.00    
RIV   no.    6 value from time series:   115.10     for time:  13.00     to  14.00    
RIV   no.    7 value from time series:   104.00     for time:  13.00     to  14.00    
RIV   no.    8 value from time series:   104.00     for time:  13.00     to  14.00    
RIV   no.    9 value from time series:   113.50     for time:  13.00     to  14.00    
RIV   no.   10 value from time series:   113.50     for time:  13.00     to  14.00    

 NO OUTPUT CONTROL FOR STRESS PERIOD    2   TIME STEP   13
WEL   no.    1 value from time series:   0.0000     for time:  14.00     to  15.00    
WEL   no.    2 value from time series:   0.0000     for time:  14.00     to  15.00    
RIV   no.    1 value from time series:   101.00     for time:  14.00     to  15.00    
RIV   no.    2 value from time series:   101.00     for time:  14.00     to  15.00    
RIV   no.    3 value from time series:   111.50     for time:  14.00     to  15.00    
RIV   no.    4 value from time series:   111.50     for time:  14.00     to  15.00    
RIV   no.    5 value from time series:   115.10     for time:  14.00     to  15.00    
RIV   no.    6 value from time series:   115.10     for time:  14.00     to  15.00    
RIV   no.    7 value from time series:   104.00     for time:  14.00     to  15.00    
RIV   no.    8 value from time series:   104.00     for time:  14.00     to  15.00    
RIV   no.    9 value from time series:   113.50     for time:  14.00     to  15.00    
RIV   no.   10 value from time series:   113.50     for time:  14.00     to  15.00    
WEL   no.    1 value from time series:   0.0000     for time:  14.00     to  15.00    
WEL   no.    2 value from time series:   0.0000     for time:  14.00     to  15.00    
RIV   no.    1 value from time series:   101.00     for time:  14.00     to  15.00    
RIV   no.    2 value from time series:   101.00     for time:  14.00     to  15.00    
RIV   no.    3 value from time series:   111.50     for time:  14.00     to  15.00    
RIV   no.    4 value from time series:   111.50     for time:  14.00     to  15.00    
RIV   no.    5 value from time series:   115.10     for time:  14.00     to  15.00    
RIV   no.    6 value from time series:   115.10     for time:  14.00     to  15.00    
RIV   no.    7 value from time series:   104.00     for time:  14.00     to  15.00    
RIV   no.    8 value from time series:   104.00     for time:  14.00     to  15.00    
RIV   no.    9 value from time series:   113.50     for time:  14.00     to  15.00    
RIV   no.   10 value from time series:   113.50     for time:  14.00     to  15.00    

 NO OUTPUT CONTROL FOR STRESS PERIOD    2   TIME STEP   14
WEL   no.    1 value from time series:   0.0000     for time:  15.00     to  16.00    
WEL   no.    2 value from time series:   0.0000     for time:  15.00     to  16.00    
RIV   no.    1 value from time series:   101.00     for time:  15.00     to  16.00    
RIV   no.    2 value from time series:   101.00     for time:  15.00     to  16.00    
RIV   no.    3 value from time series:   111.50     for time:  15.00     to  16.00    
RIV   no.    4 value from time series:   111.50     for time:  15.00     to  16.00    
RIV   no.    5 value from time series:   115.10     for time:  15.00     to  16.00    
RIV   no.    6 value from time series:   115.10     for time:  15.00     to  16.00    
RIV   no.    7 value from time series:   104.00     for time:  15.00     to  16.00    
RIV   no.    8 value from time series:   104.00     for time:  15.00     to  16.00    
RIV   no.    9 value from time series:   113.50     for time:  15.00     to  16.00    
RIV   no.   10 value from time series:   113.50     for time:  15.00     to  16.00    
WEL   no.    1 value from time series:   0.0000     for time:  15.00     to  16.00    
WEL   no.    2 value from time series:   0.0000     for time:  15.00     to  16.00    
RIV   no.    1 value from time series:   101.00     for time:  15.00     to  16.00    
RIV   no.    2 value from time series:   101.00     for time:  15.00     to  16.00    
RIV   no.    3 value from time series:   111.50     for time:  15.00     to  16.00    
RIV   no.    4 value from time series:   111.50     for time:  15.00     to  16.00    
RIV   no.    5 value from time series:   115.10     for time:  15.00     to  16.00    
RIV   no.    6 value from time series:   115.10     for time:  15.00     to  16.00    
RIV   no.    7 value from time series:   104.00     for time:  15.00     to  16.00    
RIV   no.    8 value from time series:   104.00     for time:  15.00     to  16.00    
RIV   no.    9 value from time series:   113.50     for time:  15.00     to  16.00    
RIV   no.   10 value from time series:   113.50     for time:  15.00     to  16.00    

 NO OUTPUT CONTROL FOR STRESS PERIOD    2   TIME STEP   15
WEL   no.    1 value from time series:   0.0000     for time:  16.00     to  17.00    
WEL   no.    2 value from time series:   0.0000     for time:  16.00     to  17.00    
RIV   no.    1 value from time series:   101.00     for time:  16.00     to  17.00    
RIV   no.    2 value from time series:   101.00     for time:  16.00     to  17.00    
RIV   no.    3 value from time series:   111.50     for time:  16.00     to  17.00    
RIV   no.    4 value from time series:   111.50     for time:  16.00     to  17.00    
RIV   no.    5 value from time series:   115.10     for time:  16.00     to  17.00    
RIV   no.    6 value from time series:   115.10     for time:  16.00     to  17.00    
RIV   no.    7 value from time series:   104.00     for time:  16.00     to  17.00    
RIV   no.    8 value from time series:   104.00     for time:  16.00     to  17.00    
RIV   no.    9 value from time series:   113.50     for time:  16.00     to  17.00    
RIV   no.   10 value from time series:   113.50     for time:  16.00     to  17.00    
WEL   no.    1 value from time series:   0.0000     for time:  16.00     to  17.00    
WEL   no.    2 value from time series:   0.0000     for time:  16.00     to  17.00    
RIV   no.    1 value from time series:   101.00     for time:  16.00     to  17.00    
RIV   no.    2 value from time series:   101.00     for time:  16.00     to  17.00    
RIV   no.    3 value from time series:   111.50     for time:  16.00     to  17.00    
RIV   no.    4 value from time series:   111.50     for time:  16.00     to  17.00    
RIV   no.    5 value from time series:   115.10     for time:  16.00     to  17.00    
RIV   no.    6 value from time series:   115.10     for time:  16.00     to  17.00    
RIV   no.    7 value from time series:   104.00     for time:  16.00     to  17.00    
RIV   no.    8 value from time series:   104.00     for time:  16.00     to  17.00    
RIV   no.    9 value from time series:   113.50     for time:  16.00     to  17.00    
RIV   no.   10 value from time series:   113.50     for time:  16.00     to  17.00    

 NO OUTPUT CONTROL FOR STRESS PERIOD    2   TIME STEP   16
WEL   no.    1 value from time series:   0.0000     for time:  17.00     to  18.00    
WEL   no.    2 value from time series:   0.0000     for time:  17.00     to  18.00    
RIV   no.    1 value from time series:   101.00     for time:  17.00     to  18.00    
RIV   no.    2 value from time series:   101.00     for time:  17.00     to  18.00    
RIV   no.    3 value from time series:   111.50     for time:  17.00     to  18.00    
RIV   no.    4 value from time series:   111.50     for time:  17.00     to  18.00    
RIV   no.    5 value from time series:   115.10     for time:  17.00     to  18.00    
RIV   no.    6 value from time series:   115.10     for time:  17.00     to  18.00    
RIV   no.    7 value from time series:   104.00     for time:  17.00     to  18.00    
RIV   no.    8 value from time series:   104.00     for time:  17.00     to  18.00    
RIV   no.    9 value from time series:   113.50     for time:  17.00     to  18.00    
RIV   no.   10 value from time series:   113.50     for time:  17.00     to  18.00    
WEL   no.    1 value from time series:   0.0000     for time:  17.00     to  18.00    
WEL   no.    2 value from time series:   0.0000     for time:  17.00     to  18.00    
RIV   no.    1 value from time series:   101.00     for time:  17.00     to  18.00    
RIV   no.    2 value from time series:   101.00     for time:  17.00     to  18.00    
RIV   no.    3 value from time series:   111.50     for time:  17.00     to  18.00    
RIV   no.    4 value from time series:   111.50     for time:  17.00     to  18.00    
RIV   no.    5 value from time series:   115.10     for time:  17.00     to  18.00    
RIV   no.    6 value from time series:   115.10     for time:  17.00     to  18.00    
RIV   no.    7 value from time series:   104.00     for time:  17.00     to  18.00    
RIV   no.    8 value from time series:   104.00     for time:  17.00     to  18.00    
RIV   no.    9 value from time series:   113.50     for time:  17.00     to  18.00    
RIV   no.   10 value from time series:   113.50     for time:  17.00     to  18.00    

 NO OUTPUT CONTROL FOR STRESS PERIOD    2   TIME STEP   17
WEL   no.    1 value from time series:   0.0000     for time:  18.00     to  19.00    
WEL   no.    2 value from time series:   0.0000     for time:  18.00     to  19.00    
RIV   no.    1 value from time series:   101.00     for time:  18.00     to  19.00    
RIV   no.    2 value from time series:   101.00     for time:  18.00     to  19.00    
RIV   no.    3 value from time series:   111.50     for time:  18.00     to  19.00    
RIV   no.    4 value from time series:   111.50     for time:  18.00     to  19.00    
RIV   no.    5 value from time series:   115.10     for time:  18.00     to  19.00    
RIV   no.    6 value from time series:   115.10     for time:  18.00     to  19.00    
RIV   no.    7 value from time series:   104.00     for time:  18.00     to  19.00    
RIV   no.    8 value from time series:   104.00     for time:  18.00     to  19.00    
RIV   no.    9 value from time series:   113.50     for time:  18.00     to  19.00    
RIV   no.   10 value from time series:   113.50     for time:  18.00     to  19.00    
WEL   no.    1 value from time series:   0.0000     for time:  18.00     to  19.00    
WEL   no.    2 value from time series:   0.0000     for time:  18.00     to  19.00    
RIV   no.    1 value from time series:   101.00     for time:  18.00     to  19.00    
RIV   no.    2 value from time series:   101.00     for time:  18.00     to  19.00    
RIV   no.    3 value from time series:   111.50     for time:  18.00     to  19.00    
RIV   no.    4 value from time series:   111.50     for time:  18.00     to  19.00    
RIV   no.    5 value from time series:   115.10     for time:  18.00     to  19.00    
RIV   no.    6 value from time series:   115.10     for time:  18.00     to  19.00    
RIV   no.    7 value from time series:   104.00     for time:  18.00     to  19.00    
RIV   no.    8 value from time series:   104.00     for time:  18.00     to  19.00    
RIV   no.    9 value from time series:   113.50     for time:  18.00     to  19.00    
RIV   no.   10 value from time series:   113.50     for time:  18.00     to  19.00    

 NO OUTPUT CONTROL FOR STRESS PERIOD    2   TIME STEP   18
WEL   no.    1 value from time series:   0.0000     for time:  19.00     to  20.00    
WEL   no.    2 value from time series:   0.0000     for time:  19.00     to  20.00    
RIV   no.    1 value from time series:   101.00     for time:  19.00     to  20.00    
RIV   no.    2 value from time series:   101.00     for time:  19.00     to  20.00    
RIV   no.    3 value from time series:   111.50     for time:  19.00     to  20.00    
RIV   no.    4 value from time series:   111.50     for time:  19.00     to  20.00    
RIV   no.    5 value from time series:   115.10     for time:  19.00     to  20.00    
RIV   no.    6 value from time series:   115.10     for time:  19.00     to  20.00    
RIV   no.    7 value from time series:   104.00     for time:  19.00     to  20.00    
RIV   no.    8 value from time series:   104.00     for time:  19.00     to  20.00    
RIV   no.    9 value from time series:   113.50     for time:  19.00     to  20.00    
RIV   no.   10 value from time series:   113.50     for time:  19.00     to  20.00    
WEL   no.    1 value from time series:   0.0000     for time:  19.00     to  20.00    
WEL   no.    2 value from time series:   0.0000     for time:  19.00     to  20.00    
RIV   no.    1 value from time series:   101.00     for time:  19.00     to  20.00    
RIV   no.    2 value from time series:   101.00     for time:  19.00     to  20.00    
RIV   no.    3 value from time series:   111.50     for time:  19.00     to  20.00    
RIV   no.    4 value from time series:   111.50     for time:  19.00     to  20.00    
RIV   no.    5 value from time series:   115.10     for time:  19.00     to  20.00    
RIV   no.    6 value from time series:   115.10     for time:  19.00     to  20.00    
RIV   no.    7 value from time series:   104.00     for time:  19.00     to  20.00    
RIV   no.    8 value from time series:   104.00     for time:  19.00     to  20.00    
RIV   no.    9 value from time series:   113.50     for time:  19.00     to  20.00    
RIV   no.   10 value from time series:   113.50     for time:  19.00     to  20.00    

 NO OUTPUT CONTROL FOR STRESS PERIOD    2   TIME STEP   19
WEL   no.    1 value from time series:   0.0000     for time:  20.00     to  21.00    
WEL   no.    2 value from time series:   0.0000     for time:  20.00     to  21.00    
RIV   no.    1 value from time series:   101.00     for time:  20.00     to  21.00    
RIV   no.    2 value from time series:   101.00     for time:  20.00     to  21.00    
RIV   no.    3 value from time series:   111.50     for time:  20.00     to  21.00    
RIV   no.    4 value from time series:   111.50     for time:  20.00     to  21.00    
RIV   no.    5 value from time series:   115.10     for time:  20.00     to  21.00    
RIV   no.    6 value from time series:   115.10     for time:  20.00     to  21.00    
RIV   no.    7 value from time series:   104.00     for time:  20.00     to  21.00    
RIV   no.    8 value from time series:   104.00     for time:  20.00     to  21.00    
RIV   no.    9 value from time series:   113.50     for time:  20.00     to  21.00    
RIV   no.   10 value from time series:   113.50     for time:  20.00     to  21.00    
WEL   no.    1 value from time series:   0.0000     for time:  20.00     to  21.00    
WEL   no.    2 value from time series:   0.0000     for time:  20.00     to  21.00    
RIV   no.    1 value from time series:   101.00     for time:  20.00     to  21.00    
RIV   no.    2 value from time series:   101.00     for time:  20.00     to  21.00    
RIV   no.    3 value from time series:   111.50     for time:  20.00     to  21.00    
RIV   no.    4 value from time series:   111.50     for time:  20.00     to  21.00    
RIV   no.    5 value from time series:   115.10     for time:  20.00     to  21.00    
RIV   no.    6 value from time series:   115.10     for time:  20.00     to  21.00    
RIV   no.    7 value from time series:   104.00     for time:  20.00     to  21.00    
RIV   no.    8 value from time series:   104.00     for time:  20.00     to  21.00    
RIV   no.    9 value from time series:   113.50     for time:  20.00     to  21.00    
RIV   no.   10 value from time series:   113.50     for time:  20.00     to  21.00    

 NO OUTPUT CONTROL FOR STRESS PERIOD    2   TIME STEP   20
WEL   no.    1 value from time series:   0.0000     for time:  21.00     to  22.00    
WEL   no.    2 value from time series:   0.0000     for time:  21.00     to  22.00    
RIV   no.    1 value from time series:   101.00     for time:  21.00     to  22.00    
RIV   no.    2 value from time series:   101.00     for time:  21.00     to  22.00    
RIV   no.    3 value from time series:   111.50     for time:  21.00     to  22.00    
RIV   no.    4 value from time series:   111.50     for time:  21.00     to  22.00    
RIV   no.    5 value from time series:   115.10     for time:  21.00     to  22.00    
RIV   no.    6 value from time series:   115.10     for time:  21.00     to  22.00    
RIV   no.    7 value from time series:   104.00     for time:  21.00     to  22.00    
RIV   no.    8 value from time series:   104.00     for time:  21.00     to  22.00    
RIV   no.    9 value from time series:   113.50     for time:  21.00     to  22.00    
RIV   no.   10 value from time series:   113.50     for time:  21.00     to  22.00    
WEL   no.    1 value from time series:   0.0000     for time:  21.00     to  22.00    
WEL   no.    2 value from time series:   0.0000     for time:  21.00     to  22.00    
RIV   no.    1 value from time series:   101.00     for time:  21.00     to  22.00    
RIV   no.    2 value from time series:   101.00     for time:  21.00     to  22.00    
RIV   no.    3 value from time series:   111.50     for time:  21.00     to  22.00    
RIV   no.    4 value from time series:   111.50     for time:  21.00     to  22.00    
RIV   no.    5 value from time series:   115.10     for time:  21.00     to  22.00    
RIV   no.    6 value from time series:   115.10     for time:  21.00     to  22.00    
RIV   no.    7 value from time series:   104.00     for time:  21.00     to  22.00    
RIV   no.    8 value from time series:   104.00     for time:  21.00     to  22.00    
RIV   no.    9 value from time series:   113.50     for time:  21.00     to  22.00    
RIV   no.   10 value from time series:   113.50     for time:  21.00     to  22.00    

 NO OUTPUT CONTROL FOR STRESS PERIOD    2   TIME STEP   21
WEL   no.    1 value from time series:   0.0000     for time:  22.00     to  23.00    
WEL   no.    2 value from time series:   0.0000     for time:  22.00     to  23.00    
RIV   no.    1 value from time series:   101.00     for time:  22.00     to  23.00    
RIV   no.    2 value from time series:   101.00     for time:  22.00     to  23.00    
RIV   no.    3 value from time series:   111.50     for time:  22.00     to  23.00    
RIV   no.    4 value from time series:   111.50     for time:  22.00     to  23.00    
RIV   no.    5 value from time series:   115.10     for time:  22.00     to  23.00    
RIV   no.    6 value from time series:   115.10     for time:  22.00     to  23.00    
RIV   no.    7 value from time series:   104.00     for time:  22.00     to  23.00    
RIV   no.    8 value from time series:   104.00     for time:  22.00     to  23.00    
RIV   no.    9 value from time series:   113.50     for time:  22.00     to  23.00    
RIV   no.   10 value from time series:   113.50     for time:  22.00     to  23.00    
WEL   no.    1 value from time series:   0.0000     for time:  22.00     to  23.00    
WEL   no.    2 value from time series:   0.0000     for time:  22.00     to  23.00    
RIV   no.    1 value from time series:   101.00     for time:  22.00     to  23.00    
RIV   no.    2 value from time series:   101.00     for time:  22.00     to  23.00    
RIV   no.    3 value from time series:   111.50     for time:  22.00     to  23.00    
RIV   no.    4 value from time series:   111.50     for time:  22.00     to  23.00    
RIV   no.    5 value from time series:   115.10     for time:  22.00     to  23.00    
RIV   no.    6 value from time series:   115.10     for time:  22.00     to  23.00    
RIV   no.    7 value from time series:   104.00     for time:  22.00     to  23.00    
RIV   no.    8 value from time series:   104.00     for time:  22.00     to  23.00    
RIV   no.    9 value from time series:   113.50     for time:  22.00     to  23.00    
RIV   no.   10 value from time series:   113.50     for time:  22.00     to  23.00    

 NO OUTPUT CONTROL FOR STRESS PERIOD    2   TIME STEP   22
WEL   no.    1 value from time series:   0.0000     for time:  23.00     to  24.00    
WEL   no.    2 value from time series:   0.0000     for time:  23.00     to  24.00    
RIV   no.    1 value from time series:   101.00     for time:  23.00     to  24.00    
RIV   no.    2 value from time series:   101.00     for time:  23.00     to  24.00    
RIV   no.    3 value from time series:   111.50     for time:  23.00     to  24.00    
RIV   no.    4 value from time series:   111.50     for time:  23.00     to  24.00    
RIV   no.    5 value from time series:   115.10     for time:  23.00     to  24.00    
RIV   no.    6 value from time series:   115.10     for time:  23.00     to  24.00    
RIV   no.    7 value from time series:   104.00     for time:  23.00     to  24.00    
RIV   no.    8 value from time series:   104.00     for time:  23.00     to  24.00    
RIV   no.    9 value from time series:   113.50     for time:  23.00     to  24.00    
RIV   no.   10 value from time series:   113.50     for time:  23.00     to  24.00    
WEL   no.    1 value from time series:   0.0000     for time:  23.00     to  24.00    
WEL   no.    2 value from time series:   0.0000     for time:  23.00     to  24.00    
RIV   no.    1 value from time series:   101.00     for time:  23.00     to  24.00    
RIV   no.    2 value from time series:   101.00     for time:  23.00     to  24.00    
RIV   no.    3 value from time series:   111.50     for time:  23.00     to  24.00    
RIV   no.    4 value from time series:   111.50     for time:  23.00     to  24.00    
RIV   no.    5 value from time series:   115.10     for time:  23.00     to  24.00    
RIV   no.    6 value from time series:   115.10     for time:  23.00     to  24.00    
RIV   no.    7 value from time series:   104.00     for time:  23.00     to  24.00    
RIV   no.    8 value from time series:   104.00     for time:  23.00     to  24.00    
RIV   no.    9 value from time series:   113.50     for time:  23.00     to  24.00    
RIV   no.   10 value from time series:   113.50     for time:  23.00     to  24.00    

 NO OUTPUT CONTROL FOR STRESS PERIOD    2   TIME STEP   23
WEL   no.    1 value from time series:   0.0000     for time:  24.00     to  25.00    
WEL   no.    2 value from time series:   0.0000     for time:  24.00     to  25.00    
RIV   no.    1 value from time series:   101.00     for time:  24.00     to  25.00    
RIV   no.    2 value from time series:   101.00     for time:  24.00     to  25.00    
RIV   no.    3 value from time series:   111.50     for time:  24.00     to  25.00    
RIV   no.    4 value from time series:   111.50     for time:  24.00     to  25.00    
RIV   no.    5 value from time series:   115.10     for time:  24.00     to  25.00    
RIV   no.    6 value from time series:   115.10     for time:  24.00     to  25.00    
RIV   no.    7 value from time series:   104.00     for time:  24.00     to  25.00    
RIV   no.    8 value from time series:   104.00     for time:  24.00     to  25.00    
RIV   no.    9 value from time series:   113.50     for time:  24.00     to  25.00    
RIV   no.   10 value from time series:   113.50     for time:  24.00     to  25.00    
WEL   no.    1 value from time series:   0.0000     for time:  24.00     to  25.00    
WEL   no.    2 value from time series:   0.0000     for time:  24.00     to  25.00    
RIV   no.    1 value from time series:   101.00     for time:  24.00     to  25.00    
RIV   no.    2 value from time series:   101.00     for time:  24.00     to  25.00    
RIV   no.    3 value from time series:   111.50     for time:  24.00     to  25.00    
RIV   no.    4 value from time series:   111.50     for time:  24.00     to  25.00    
RIV   no.    5 value from time series:   115.10     for time:  24.00     to  25.00    
RIV   no.    6 value from time series:   115.10     for time:  24.00     to  25.00    
RIV   no.    7 value from time series:   104.00     for time:  24.00     to  25.00    
RIV   no.    8 value from time series:   104.00     for time:  24.00     to  25.00    
RIV   no.    9 value from time series:   113.50     for time:  24.00     to  25.00    
RIV   no.   10 value from time series:   113.50     for time:  24.00     to  25.00    

 NO OUTPUT CONTROL FOR STRESS PERIOD    2   TIME STEP   24
WEL   no.    1 value from time series:   0.0000     for time:  25.00     to  26.00    
WEL   no.    2 value from time series:   0.0000     for time:  25.00     to  26.00    
RIV   no.    1 value from time series:   101.00     for time:  25.00     to  26.00    
RIV   no.    2 value from time series:   101.00     for time:  25.00     to  26.00    
RIV   no.    3 value from time series:   111.50     for time:  25.00     to  26.00    
RIV   no.    4 value from time series:   111.50     for time:  25.00     to  26.00    
RIV   no.    5 value from time series:   115.10     for time:  25.00     to  26.00    
RIV   no.    6 value from time series:   115.10     for time:  25.00     to  26.00    
RIV   no.    7 value from time series:   104.00     for time:  25.00     to  26.00    
RIV   no.    8 value from time series:   104.00     for time:  25.00     to  26.00    
RIV   no.    9 value from time series:   113.50     for time:  25.00     to  26.00    
RIV   no.   10 value from time series:   113.50     for time:  25.00     to  26.00    
WEL   no.    1 value from time series:   0.0000     for time:  25.00     to  26.00    
WEL   no.    2 value from time series:   0.0000     for time:  25.00     to  26.00    
RIV   no.    1 value from time series:   101.00     for time:  25.00     to  26.00    
RIV   no.    2 value from time series:   101.00     for time:  25.00     to  26.00    
RIV   no.    3 value from time series:   111.50     for time:  25.00     to  26.00    
RIV   no.    4 value from time series:   111.50     for time:  25.00     to  26.00    
RIV   no.    5 value from time series:   115.10     for time:  25.00     to  26.00    
RIV   no.    6 value from time series:   115.10     for time:  25.00     to  26.00    
RIV   no.    7 value from time series:   104.00     for time:  25.00     to  26.00    
RIV   no.    8 value from time series:   104.00     for time:  25.00     to  26.00    
RIV   no.    9 value from time series:   113.50     for time:  25.00     to  26.00    
RIV   no.   10 value from time series:   113.50     for time:  25.00     to  26.00    

 NO OUTPUT CONTROL FOR STRESS PERIOD    2   TIME STEP   25
WEL   no.    1 value from time series:   0.0000     for time:  26.00     to  27.00    
WEL   no.    2 value from time series:   0.0000     for time:  26.00     to  27.00    
RIV   no.    1 value from time series:   101.00     for time:  26.00     to  27.00    
RIV   no.    2 value from time series:   101.00     for time:  26.00     to  27.00    
RIV   no.    3 value from time series:   111.50     for time:  26.00     to  27.00    
RIV   no.    4 value from time series:   111.50     for time:  26.00     to  27.00    
RIV   no.    5 value from time series:   115.10     for time:  26.00     to  27.00    
RIV   no.    6 value from time series:   115.10     for time:  26.00     to  27.00    
RIV   no.    7 value from time series:   104.00     for time:  26.00     to  27.00    
RIV   no.    8 value from time series:   104.00     for time:  26.00     to  27.00    
RIV   no.    9 value from time series:   113.50     for time:  26.00     to  27.00    
RIV   no.   10 value from time series:   113.50     for time:  26.00     to  27.00    
WEL   no.    1 value from time series:   0.0000     for time:  26.00     to  27.00    
WEL   no.    2 value from time series:   0.0000     for time:  26.00     to  27.00    
RIV   no.    1 value from time series:   101.00     for time:  26.00     to  27.00    
RIV   no.    2 value from time series:   101.00     for time:  26.00     to  27.00    
RIV   no.    3 value from time series:   111.50     for time:  26.00     to  27.00    
RIV   no.    4 value from time series:   111.50     for time:  26.00     to  27.00    
RIV   no.    5 value from time series:   115.10     for time:  26.00     to  27.00    
RIV   no.    6 value from time series:   115.10     for time:  26.00     to  27.00    
RIV   no.    7 value from time series:   104.00     for time:  26.00     to  27.00    
RIV   no.    8 value from time series:   104.00     for time:  26.00     to  27.00    
RIV   no.    9 value from time series:   113.50     for time:  26.00     to  27.00    
RIV   no.   10 value from time series:   113.50     for time:  26.00     to  27.00    

 NO OUTPUT CONTROL FOR STRESS PERIOD    2   TIME STEP   26
WEL   no.    1 value from time series:   0.0000     for time:  27.00     to  28.00    
WEL   no.    2 value from time series:   0.0000     for time:  27.00     to  28.00    
RIV   no.    1 value from time series:   101.00     for time:  27.00     to  28.00    
RIV   no.    2 value from time series:   101.00     for time:  27.00     to  28.00    
RIV   no.    3 value from time series:   111.50     for time:  27.00     to  28.00    
RIV   no.    4 value from time series:   111.50     for time:  27.00     to  28.00    
RIV   no.    5 value from time series:   115.10     for time:  27.00     to  28.00    
RIV   no.    6 value from time series:   115.10     for time:  27.00     to  28.00    
RIV   no.    7 value from time series:   104.00     for time:  27.00     to  28.00    
RIV   no.    8 value from time series:   104.00     for time:  27.00     to  28.00    
RIV   no.    9 value from time series:   113.50     for time:  27.00     to  28.00    
RIV   no.   10 value from time series:   113.50     for time:  27.00     to  28.00    
WEL   no.    1 value from time series:   0.0000     for time:  27.00     to  28.00    
WEL   no.    2 value from time series:   0.0000     for time:  27.00     to  28.00    
RIV   no.    1 value from time series:   101.00     for time:  27.00     to  28.00    
RIV   no.    2 value from time series:   101.00     for time:  27.00     to  28.00    
RIV   no.    3 value from time series:   111.50     for time:  27.00     to  28.00    
RIV   no.    4 value from time series:   111.50     for time:  27.00     to  28.00    
RIV   no.    5 value from time series:   115.10     for time:  27.00     to  28.00    
RIV   no.    6 value from time series:   115.10     for time:  27.00     to  28.00    
RIV   no.    7 value from time series:   104.00     for time:  27.00     to  28.00    
RIV   no.    8 value from time series:   104.00     for time:  27.00     to  28.00    
RIV   no.    9 value from time series:   113.50     for time:  27.00     to  28.00    
RIV   no.   10 value from time series:   113.50     for time:  27.00     to  28.00    

 NO OUTPUT CONTROL FOR STRESS PERIOD    2   TIME STEP   27
WEL   no.    1 value from time series:   0.0000     for time:  28.00     to  29.00    
WEL   no.    2 value from time series:   0.0000     for time:  28.00     to  29.00    
RIV   no.    1 value from time series:   101.00     for time:  28.00     to  29.00    
RIV   no.    2 value from time series:   101.00     for time:  28.00     to  29.00    
RIV   no.    3 value from time series:   111.50     for time:  28.00     to  29.00    
RIV   no.    4 value from time series:   111.50     for time:  28.00     to  29.00    
RIV   no.    5 value from time series:   115.10     for time:  28.00     to  29.00    
RIV   no.    6 value from time series:   115.10     for time:  28.00     to  29.00    
RIV   no.    7 value from time series:   104.00     for time:  28.00     to  29.00    
RIV   no.    8 value from time series:   104.00     for time:  28.00     to  29.00    
RIV   no.    9 value from time series:   113.50     for time:  28.00     to  29.00    
RIV   no.   10 value from time series:   113.50     for time:  28.00     to  29.00    
WEL   no.    1 value from time series:   0.0000     for time:  28.00     to  29.00    
WEL   no.    2 value from time series:   0.0000     for time:  28.00     to  29.00    
RIV   no.    1 value from time series:   101.00     for time:  28.00     to  29.00    
RIV   no.    2 value from time series:   101.00     for time:  28.00     to  29.00    
RIV   no.    3 value from time series:   111.50     for time:  28.00     to  29.00    
RIV   no.    4 value from time series:   111.50     for time:  28.00     to  29.00    
RIV   no.    5 value from time series:   115.10     for time:  28.00     to  29.00    
RIV   no.    6 value from time series:   115.10     for time:  28.00     to  29.00    
RIV   no.    7 value from time series:   104.00     for time:  28.00     to  29.00    
RIV   no.    8 value from time series:   104.00     for time:  28.00     to  29.00    
RIV   no.    9 value from time series:   113.50     for time:  28.00     to  29.00    
RIV   no.   10 value from time series:   113.50     for time:  28.00     to  29.00    

 NO OUTPUT CONTROL FOR STRESS PERIOD    2   TIME STEP   28
WEL   no.    1 value from time series:   0.0000     for time:  29.00     to  30.00    
WEL   no.    2 value from time series:   0.0000     for time:  29.00     to  30.00    
RIV   no.    1 value from time series:   101.00     for time:  29.00     to  30.00    
RIV   no.    2 value from time series:   101.00     for time:  29.00     to  30.00    
RIV   no.    3 value from time series:   111.50     for time:  29.00     to  30.00    
RIV   no.    4 value from time series:   111.50     for time:  29.00     to  30.00    
RIV   no.    5 value from time series:   115.10     for time:  29.00     to  30.00    
RIV   no.    6 value from time series:   115.10     for time:  29.00     to  30.00    
RIV   no.    7 value from time series:   104.00     for time:  29.00     to  30.00    
RIV   no.    8 value from time series:   104.00     for time:  29.00     to  30.00    
RIV   no.    9 value from time series:   113.50     for time:  29.00     to  30.00    
RIV   no.   10 value from time series:   113.50     for time:  29.00     to  30.00    
WEL   no.    1 value from time series:   0.0000     for time:  29.00     to  30.00    
WEL   no.    2 value from time series:   0.0000     for time:  29.00     to  30.00    
RIV   no.    1 value from time series:   101.00     for time:  29.00     to  30.00    
RIV   no.    2 value from time series:   101.00     for time:  29.00     to  30.00    
RIV   no.    3 value from time series:   111.50     for time:  29.00     to  30.00    
RIV   no.    4 value from time series:   111.50     for time:  29.00     to  30.00    
RIV   no.    5 value from time series:   115.10     for time:  29.00     to  30.00    
RIV   no.    6 value from time series:   115.10     for time:  29.00     to  30.00    
RIV   no.    7 value from time series:   104.00     for time:  29.00     to  30.00    
RIV   no.    8 value from time series:   104.00     for time:  29.00     to  30.00    
RIV   no.    9 value from time series:   113.50     for time:  29.00     to  30.00    
RIV   no.   10 value from time series:   113.50     for time:  29.00     to  30.00    

 NO OUTPUT CONTROL FOR STRESS PERIOD    2   TIME STEP   29
WEL   no.    1 value from time series:   0.0000     for time:  30.00     to  31.00    
WEL   no.    2 value from time series:   0.0000     for time:  30.00     to  31.00    
RIV   no.    1 value from time series:   101.00     for time:  30.00     to  31.00    
RIV   no.    2 value from time series:   101.00     for time:  30.00     to  31.00    
RIV   no.    3 value from time series:   111.50     for time:  30.00     to  31.00    
RIV   no.    4 value from time series:   111.50     for time:  30.00     to  31.00    
RIV   no.    5 value from time series:   115.10     for time:  30.00     to  31.00    
RIV   no.    6 value from time series:   115.10     for time:  30.00     to  31.00    
RIV   no.    7 value from time series:   104.00     for time:  30.00     to  31.00    
RIV   no.    8 value from time series:   104.00     for time:  30.00     to  31.00    
RIV   no.    9 value from time series:   113.50     for time:  30.00     to  31.00    
RIV   no.   10 value from time series:   113.50     for time:  30.00     to  31.00    
WEL   no.    1 value from time series:   0.0000     for time:  30.00     to  31.00    
WEL   no.    2 value from time series:   0.0000     for time:  30.00     to  31.00    
RIV   no.    1 value from time series:   101.00     for time:  30.00     to  31.00    
RIV   no.    2 value from time series:   101.00     for time:  30.00     to  31.00    
RIV   no.    3 value from time series:   111.50     for time:  30.00     to  31.00    
RIV   no.    4 value from time series:   111.50     for time:  30.00     to  31.00    
RIV   no.    5 value from time series:   115.10     for time:  30.00     to  31.00    
RIV   no.    6 value from time series:   115.10     for time:  30.00     to  31.00    
RIV   no.    7 value from time series:   104.00     for time:  30.00     to  31.00    
RIV   no.    8 value from time series:   104.00     for time:  30.00     to  31.00    
RIV   no.    9 value from time series:   113.50     for time:  30.00     to  31.00    
RIV   no.   10 value from time series:   113.50     for time:  30.00     to  31.00    

 NO OUTPUT CONTROL FOR STRESS PERIOD    2   TIME STEP   30
WEL   no.    1 value from time series:   0.0000     for time:  31.00     to  32.00    
WEL   no.    2 value from time series:   0.0000     for time:  31.00     to  32.00    
RIV   no.    1 value from time series:   101.00     for time:  31.00     to  32.00    
RIV   no.    2 value from time series:   101.00     for time:  31.00     to  32.00    
RIV   no.    3 value from time series:   111.50     for time:  31.00     to  32.00    
RIV   no.    4 value from time series:   111.50     for time:  31.00     to  32.00    
RIV   no.    5 value from time series:   115.10     for time:  31.00     to  32.00    
RIV   no.    6 value from time series:   115.10     for time:  31.00     to  32.00    
RIV   no.    7 value from time series:   104.00     for time:  31.00     to  32.00    
RIV   no.    8 value from time series:   104.00     for time:  31.00     to  32.00    
RIV   no.    9 value from time series:   113.50     for time:  31.00     to  32.00    
RIV   no.   10 value from time series:   113.50     for time:  31.00     to  32.00    
WEL   no.    1 value from time series:   0.0000     for time:  31.00     to  32.00    
WEL   no.    2 value from time series:   0.0000     for time:  31.00     to  32.00    
RIV   no.    1 value from time series:   101.00     for time:  31.00     to  32.00    
RIV   no.    2 value from time series:   101.00     for time:  31.00     to  32.00    
RIV   no.    3 value from time series:   111.50     for time:  31.00     to  32.00    
RIV   no.    4 value from time series:   111.50     for time:  31.00     to  32.00    
RIV   no.    5 value from time series:   115.10     for time:  31.00     to  32.00    
RIV   no.    6 value from time series:   115.10     for time:  31.00     to  32.00    
RIV   no.    7 value from time series:   104.00     for time:  31.00     to  32.00    
RIV   no.    8 value from time series:   104.00     for time:  31.00     to  32.00    
RIV   no.    9 value from time series:   113.50     for time:  31.00     to  32.00    
RIV   no.   10 value from time series:   113.50     for time:  31.00     to  32.00    

 OUTPUT CONTROL FOR STRESS PERIOD    2   TIME STEP   31
    PRINT BUDGET
    SAVE BUDGET
    SAVE HEAD
    SAVE HEAD FOR ALL LAYERS
 UBDSV1 SAVING          STORAGE ON UNIT   1016 AT TIME STEP     31, STRESS PERIOD      2
 UBDSV1 SAVING FLOW RIGHT FACE  ON UNIT   1016 AT TIME STEP     31, STRESS PERIOD      2
 UBDSV1 SAVING FLOW FRONT FACE  ON UNIT   1016 AT TIME STEP     31, STRESS PERIOD      2
 UBDSV1 SAVING FLOW LOWER FACE  ON UNIT   1016 AT TIME STEP     31, STRESS PERIOD      2
 UBDSV4 SAVING WELLS NEAR RIVER ON UNIT   1016 AT TIME STEP     31, STRESS PERIOD      2

 WELLS NEAR RIVER   PERIOD  2   STEP 31
 BOUNDARY      1   LAYER   2   ROW     3   COL     4   RATE     0.00000      WELL_1
 BOUNDARY      2   LAYER   2   ROW     8   COL     4   RATE     0.00000      WELL_2
 BOUNDARY      3   LAYER   2   ROW     4   COL     6   RATE   -10.00000    
 BOUNDARY      4   LAYER   2   ROW     5   COL     8   RATE    -20.0000    
 BOUNDARY      5   LAYER   2   ROW     2   COL     9   RATE    -40.0000    
 UBDSV4 SAVING RIVER            ON UNIT   1016 AT TIME STEP     31, STRESS PERIOD      2

 RIVER              PERIOD  2   STEP 31
 BOUNDARY      1   LAYER   1   ROW     1   COL    15   RATE    -4889.14    
 BOUNDARY      2   LAYER   1   ROW     2   COL    15   RATE    -5991.49      RIV2
 BOUNDARY      3   LAYER   1   ROW     3   COL    15   RATE    -2187.10      RIV3
 BOUNDARY      4   LAYER   1   ROW     4   COL    15   RATE    -3642.48    
 BOUNDARY      5   LAYER   1   ROW     5   COL    15   RATE    -2289.39    
 BOUNDARY      6   LAYER   1   ROW     6   COL    15   RATE    -1649.26    
 BOUNDARY      7   LAYER   1   ROW     7   COL    15   RATE    -6148.10      RIVX
 BOUNDARY      8   LAYER   1   ROW     8   COL    15   RATE    -5973.12      RIVX
 BOUNDARY      9   LAYER   1   ROW     9   COL    15   RATE    -2137.56      RIVX
 BOUNDARY     10   LAYER   1   ROW    10   COL    15   RATE    -3020.67    

 GHB LAKES          PERIOD  2   STEP 31
 BOUNDARY      1   LAYER   1   ROW     3   COL     1   RATE    -14451.8    
 BOUNDARY      2   LAYER   1   ROW     7   COL     1   RATE    -1838.92      GHB2_UPPER
 BOUNDARY      3   LAYER   1   ROW     7   COL     1   RATE    -13208.4      GHB2_LOWER
 UBDSV4 SAVING RECHARGE         ON UNIT   1016 AT TIME STEP     31, STRESS PERIOD      2

 RECHARGE           PERIOD  2   STEP 31
 BOUNDARY      1   LAYER   1   ROW     1   COL     1   RATE     565.625    
 BOUNDARY      2   LAYER   1   ROW     1   COL     2   RATE     565.625    
 BOUNDARY      3   LAYER   1   ROW     1   COL     3   RATE     565.625    
 BOUNDARY      4   LAYER   1   ROW     1   COL     4   RATE     565.625    
 BOUNDARY      5   LAYER   1   ROW     1   COL     5   RATE     565.625    
 BOUNDARY      6   LAYER   1   ROW     1   COL     6   RATE     565.625    
 BOUNDARY      7   LAYER   1   ROW     1   COL     7   RATE     565.625    
 BOUNDARY      8   LAYER   1   ROW     1   COL     8   RATE     565.625    
 BOUNDARY      9   LAYER   1   ROW     1   COL     9   RATE     565.625    
 BOUNDARY     10   LAYER   1   ROW     1   COL    10   RATE     565.625    
 BOUNDARY     11   LAYER   1   ROW     1   COL    11   RATE     565.625    
 BOUNDARY     12   LAYER   1   ROW     1   COL    12   RATE     565.625    
 BOUNDARY     13   LAYER   1   ROW     1   COL    13   RATE     565.625    
 BOUNDARY     14   LAYER   1   ROW     1   COL    14   RATE     565.625    
 BOUNDARY     15   LAYER   1   ROW     1   COL    15   RATE     565.625    
 BOUNDARY     16   LAYER   1   ROW     2   COL     1   RATE     565.625    
 BOUNDARY     17   LAYER   1   ROW     2   COL     2   RATE     565.625    
 BOUNDARY     18   LAYER   1   ROW     2   COL     3   RATE     565.625    
 BOUNDARY     19   LAYER   1   ROW     2   COL     4   RATE     565.625    
 BOUNDARY     20   LAYER   1   ROW     2   COL     5   RATE     565.625    
 BOUNDARY     21   LAYER   1   ROW     2   COL     6   RATE     565.625    
 BOUNDARY     22   LAYER   1   ROW     2   COL     7   RATE     565.625    
 BOUNDARY     23   LAYER   1   ROW     2   COL     8   RATE     565.625    
 BOUNDARY     24   LAYER   1   ROW     2   COL     9   RATE     565.625    
 BOUNDARY     25   LAYER   1   ROW     2   COL    10   RATE     565.625    
 BOUNDARY     26   LAYER   1   ROW     2   COL    11   RATE     565.625    
 BOUNDARY     27   LAYER   1   ROW     2   COL    12   RATE     565.625    
 BOUNDARY     28   LAYER   1   ROW     2   COL    13   RATE     565.625    
 BOUNDARY     29   LAYER   1   ROW     2   COL    14   RATE     565.625    
 BOUNDARY     30   LAYER   1   ROW     2   COL    15   RATE     565.625    
 BOUNDARY     31   LAYER   1   ROW     3   COL     1   RATE     565.625    
 BOUNDARY     32   LAYER   1   ROW     3   COL     2   RATE     565.625    
 BOUNDARY     33   LAYER   1   ROW     3   COL     3   RATE     565.625    
 BOUNDARY     34   LAYER   1   ROW     3   COL     4   RATE     565.625    
 BOUNDARY     35   LAYER   1   ROW     3   COL     5   RATE     565.625    
 BOUNDARY     36   LAYER   1   ROW     3   COL     6   RATE     565.625    
 BOUNDARY     37   LAYER   1   ROW     3   COL     7   RATE     565.625    
 BOUNDARY     38   LAYER   1   ROW     3   COL     8   RATE     565.625    
 BOUNDARY     39   LAYER   1   ROW     3   COL     9   RATE     565.625    
 BOUNDARY     40   LAYER   1   ROW     3   COL    10   RATE     565.625    
 BOUNDARY     41   LAYER   1   ROW     3   COL    11   RATE     565.625    
 BOUNDARY     42   LAYER   1   ROW     3   COL    12   RATE     565.625    
 BOUNDARY     43   LAYER   1   ROW     3   COL    13   RATE     565.625    
 BOUNDARY     44   LAYER   1   ROW     3   COL    14   RATE     565.625    
 BOUNDARY     45   LAYER   1   ROW     3   COL    15   RATE     565.625    
 BOUNDARY     46   LAYER   1   ROW     4   COL     1   RATE     565.625    
 BOUNDARY     47   LAYER   1   ROW     4   COL     2   RATE     565.625    
 BOUNDARY     48   LAYER   1   ROW     4   COL     3   RATE     565.625    
 BOUNDARY     49   LAYER   1   ROW     4   COL     4   RATE     565.625    
 BOUNDARY     50   LAYER   1   ROW     4   COL     5   RATE     565.625    
 BOUNDARY     51   LAYER   1   ROW     4   COL     6   RATE     565.625    
 BOUNDARY     52   LAYER   1   ROW     4   COL     7   RATE     565.625    
 BOUNDARY     53   LAYER   1   ROW     4   COL     8   RATE     565.625    
 BOUNDARY     54   LAYER   1   ROW     4   COL     9   RATE     565.625    
 BOUNDARY     55   LAYER   1   ROW     4   COL    10   RATE     565.625    
 BOUNDARY     56   LAYER   1   ROW     4   COL    11   RATE     565.625    
 BOUNDARY     57   LAYER   1   ROW     4   COL    12   RATE     565.625    
 BOUNDARY     58   LAYER   1   ROW     4   COL    13   RATE     565.625    
 BOUNDARY     59   LAYER   1   ROW     4   COL    14   RATE     565.625    
 BOUNDARY     60   LAYER   1   ROW     4   COL    15   RATE     565.625    
 BOUNDARY     61   LAYER   1   ROW     5   COL     1   RATE     565.625    
 BOUNDARY     62   LAYER   1   ROW     5   COL     2   RATE     565.625    
 BOUNDARY     63   LAYER   1   ROW     5   COL     3   RATE     565.625    
 BOUNDARY     64   LAYER   1   ROW     5   COL     4   RATE     565.625    
 BOUNDARY     65   LAYER   1   ROW     5   COL     5   RATE     565.625    
 BOUNDARY     66   LAYER   1   ROW     5   COL     6   RATE     565.625    
 BOUNDARY     67   LAYER   1   ROW     5   COL     7   RATE     565.625    
 BOUNDARY     68   LAYER   1   ROW     5   COL     8   RATE     565.625    
 BOUNDARY     69   LAYER   1   ROW     5   COL     9   RATE     565.625    
 BOUNDARY     70   LAYER   1   ROW     5   COL    10   RATE     565.625    
 BOUNDARY     71   LAYER   1   ROW     5   COL    11   RATE     565.625    
 BOUNDARY     72   LAYER   1   ROW     5   COL    12   RATE     565.625    
 BOUNDARY     73   LAYER   1   ROW     5   COL    13   RATE     565.625    
 BOUNDARY     74   LAYER   1   ROW     5   COL    14   RATE     565.625    
 BOUNDARY     75   LAYER   1   ROW     5   COL    15   RATE     565.625    
 BOUNDARY     76   LAYER   1   ROW     6   COL     1   RATE     565.625    
 BOUNDARY     77   LAYER   1   ROW     6   COL     2   RATE     565.625    
 BOUNDARY     78   LAYER   1   ROW     6   COL     3   RATE     565.625    
 BOUNDARY     79   LAYER   1   ROW     6   COL     4   RATE     565.625    
 BOUNDARY     80   LAYER   1   ROW     6   COL     5   RATE     565.625    
 BOUNDARY     81   LAYER   1   ROW     6   COL     6   RATE     565.625    
 BOUNDARY     82   LAYER   1   ROW     6   COL     7   RATE     565.625    
 BOUNDARY     83   LAYER   1   ROW     6   COL     8   RATE     565.625    
 BOUNDARY     84   LAYER   1   ROW     6   COL     9   RATE     565.625    
 BOUNDARY     85   LAYER   1   ROW     6   COL    10   RATE     565.625    
 BOUNDARY     86   LAYER   1   ROW     6   COL    11   RATE     565.625    
 BOUNDARY     87   LAYER   1   ROW     6   COL    12   RATE     565.625    
 BOUNDARY     88   LAYER   1   ROW     6   COL    13   RATE     565.625    
 BOUNDARY     89   LAYER   1   ROW     6   COL    14   RATE     565.625    
 BOUNDARY     90   LAYER   1   ROW     6   COL    15   RATE     565.625    
 BOUNDARY     91   LAYER   1   ROW     7   COL     1   RATE     565.625    
 BOUNDARY     92   LAYER   1   ROW     7   COL     2   RATE     565.625    
 BOUNDARY     93   LAYER   1   ROW     7   COL     3   RATE     565.625    
 BOUNDARY     94   LAYER   1   ROW     7   COL     4   RATE     565.625    
 BOUNDARY     95   LAYER   1   ROW     7   COL     5   RATE     565.625    
 BOUNDARY     96   LAYER   1   ROW     7   COL     6   RATE     565.625    
 BOUNDARY     97   LAYER   1   ROW     7   COL     7   RATE     565.625    
 BOUNDARY     98   LAYER   1   ROW     7   COL     8   RATE     565.625    
 BOUNDARY     99   LAYER   1   ROW     7   COL     9   RATE     565.625    
 BOUNDARY    100   LAYER   1   ROW     7   COL    10   RATE     565.625    
 BOUNDARY    101   LAYER   1   ROW     7   COL    11   RATE     565.625    
 BOUNDARY    102   LAYER   1   ROW     7   COL    12   RATE     565.625    
 BOUNDARY    103   LAYER   1   ROW     7   COL    13   RATE     565.625    
 BOUNDARY    104   LAYER   1   ROW     7   COL    14   RATE     565.625    
 BOUNDARY    105   LAYER   1   ROW     7   COL    15   RATE     565.625    
 BOUNDARY    106   LAYER   1   ROW     8   COL     1   RATE     565.625    
 BOUNDARY    107   LAYER   1   ROW     8   COL     2   RATE     565.625    
 BOUNDARY    108   LAYER   1   ROW     8   COL     3   RATE     565.625    
 BOUNDARY    109   LAYER   1   ROW     8   COL     4   RATE     565.625    
 BOUNDARY    110   LAYER   1   ROW     8   COL     5   RATE     565.625    
 BOUNDARY    111   LAYER   1   ROW     8   COL     6   RATE     565.625    
 BOUNDARY    112   LAYER   1   ROW     8   COL     7   RATE     565.625    
 BOUNDARY    113   LAYER   1   ROW     8   COL     8   RATE     565.625    
 BOUNDARY    114   LAYER   1   ROW     8   COL     9   RATE     565.625    
 BOUNDARY    115   LAYER   1   ROW     8   COL    10   RATE     565.625    
 BOUNDARY    116   LAYER   1   ROW     8   COL    11   RATE     565.625    
 BOUNDARY    117   LAYER   1   ROW     8   COL    12   RATE     565.625    
 BOUNDARY    118   LAYER   1   ROW     8   COL    13   RATE     565.625    
 BOUNDARY    119   LAYER   1   ROW     8   COL    14   RATE     565.625    
 BOUNDARY    120   LAYER   1   ROW     8   COL    15   RATE     565.625    
 BOUNDARY    121   LAYER   1   ROW     9   COL     1   RATE     565.625    
 BOUNDARY    122   LAYER   1   ROW     9   COL     2   RATE     565.625    
 BOUNDARY    123   LAYER   1   ROW     9   COL     3   RATE     565.625    
 BOUNDARY    124   LAYER   1   ROW     9   COL     4   RATE     565.625    
 BOUNDARY    125   LAYER   1   ROW     9   COL     5   RATE     565.625    
 BOUNDARY    126   LAYER   1   ROW     9   COL     6   RATE     565.625    
 BOUNDARY    127   LAYER   1   ROW     9   COL     7   RATE     565.625    
 BOUNDARY    128   LAYER   1   ROW     9   COL     8   RATE     565.625    
 BOUNDARY    129   LAYER   1   ROW     9   COL     9   RATE     565.625    
 BOUNDARY    130   LAYER   1   ROW     9   COL    10   RATE     565.625    
 BOUNDARY    131   LAYER   1   ROW     9   COL    11   RATE     565.625    
 BOUNDARY    132   LAYER   1   ROW     9   COL    12   RATE     565.625    
 BOUNDARY    133   LAYER   1   ROW     9   COL    13   RATE     565.625    
 BOUNDARY    134   LAYER   1   ROW     9   COL    14   RATE     565.625    
 BOUNDARY    135   LAYER   1   ROW     9   COL    15   RATE     565.625    
 BOUNDARY    136   LAYER   1   ROW    10   COL     1   RATE     565.625    
 BOUNDARY    137   LAYER   1   ROW    10   COL     2   RATE     565.625    
 BOUNDARY    138   LAYER   1   ROW    10   COL     3   RATE     565.625    
 BOUNDARY    139   LAYER   1   ROW    10   COL     4   RATE     565.625    
 BOUNDARY    140   LAYER   1   ROW    10   COL     5   RATE     565.625    
 BOUNDARY    141   LAYER   1   ROW    10   COL     6   RATE     565.625    
 BOUNDARY    142   LAYER   1   ROW    10   COL     7   RATE     565.625    
 BOUNDARY    143   LAYER   1   ROW    10   COL     8   RATE     565.625    
 BOUNDARY    144   LAYER   1   ROW    10   COL     9   RATE     565.625    
 BOUNDARY    145   LAYER   1   ROW    10   COL    10   RATE     565.625    
 BOUNDARY    146   LAYER   1   ROW    10   COL    11   RATE     565.625    
 BOUNDARY    147   LAYER   1   ROW    10   COL    12   RATE     565.625    
 BOUNDARY    148   LAYER   1   ROW    10   COL    13   RATE     565.625    
 BOUNDARY    149   LAYER   1   ROW    10   COL    14   RATE     565.625    
 BOUNDARY    150   LAYER   1   ROW    10   COL    15   RATE     565.625    
 UBDSV4 SAVING ET SEGS          ON UNIT   1016 AT TIME STEP     31, STRESS PERIOD      2

 ET SEGS            PERIOD  2   STEP 31
 BOUNDARY      1   LAYER   1   ROW     1   COL     1   RATE    -2.14627    
 BOUNDARY      2   LAYER   1   ROW     1   COL     2   RATE    -8.99915    
 BOUNDARY      3   LAYER   1   ROW     1   COL     3   RATE    -49.0594    
 BOUNDARY      4   LAYER   1   ROW     1   COL     4   RATE   -100.0000    
 BOUNDARY      5   LAYER   1   ROW     1   COL     5   RATE   -100.0000    
 BOUNDARY      6   LAYER   1   ROW     1   COL     6   RATE   -100.0000    
 BOUNDARY      7   LAYER   1   ROW     1   COL     7   RATE   -100.0000    
 BOUNDARY      8   LAYER   1   ROW     1   COL     8   RATE   -100.0000    
 BOUNDARY      9   LAYER   1   ROW     1   COL     9   RATE   -100.0000    
 BOUNDARY     10   LAYER   1   ROW     1   COL    10   RATE   -100.0000    
 BOUNDARY     11   LAYER   1   ROW     1   COL    11   RATE   -100.0000    
 BOUNDARY     12   LAYER   1   ROW     1   COL    12   RATE    -16.7776    
 BOUNDARY     13   LAYER   1   ROW     1   COL    13   RATE     0.00000    
 BOUNDARY     14   LAYER   1   ROW     1   COL    14   RATE     0.00000    
 BOUNDARY     15   LAYER   1   ROW     1   COL    15   RATE     0.00000    
 BOUNDARY     16   LAYER   1   ROW     2   COL     1   RATE     0.00000    
 BOUNDARY     17   LAYER   1   ROW     2   COL     2   RATE    -4.48336    
 BOUNDARY     18   LAYER   1   ROW     2   COL     3   RATE    -28.2609    
 BOUNDARY     19   LAYER   1   ROW     2   COL     4   RATE   -100.0000    
 BOUNDARY     20   LAYER   1   ROW     2   COL     5   RATE   -100.0000    
 BOUNDARY     21   LAYER   1   ROW     2   COL     6   RATE   -100.0000    
 BOUNDARY     22   LAYER   1   ROW     2   COL     7   RATE   -100.0000    
 BOUNDARY     23   LAYER   1   ROW     2   COL     8   RATE   -100.0000    
 BOUNDARY     24   LAYER   1   ROW     2   COL     9   RATE   -100.0000    
 BOUNDARY     25   LAYER   1   ROW     2   COL    10   RATE   -100.0000    
 BOUNDARY     26   LAYER   1   ROW     2   COL    11   RATE   -100.0000    
 BOUNDARY     27   LAYER   1   ROW     2   COL    12   RATE    -18.5171    
 BOUNDARY     28   LAYER   1   ROW     2   COL    13   RATE   -0.101017    
 BOUNDARY     29   LAYER   1   ROW     2   COL    14   RATE     0.00000    
 BOUNDARY     30   LAYER   1   ROW     2   COL    15   RATE     0.00000    
 BOUNDARY     31   LAYER   1   ROW     3   COL     1   RATE     0.00000    
 BOUNDARY     32   LAYER   1   ROW     3   COL     2   RATE     0.00000    
 BOUNDARY     33   LAYER   1   ROW     3   COL     3   RATE    -22.2712    
 BOUNDARY     34   LAYER   1   ROW     3   COL     4   RATE   -100.0000    
 BOUNDARY     35   LAYER   1   ROW     3   COL     5   RATE   -100.0000    
 BOUNDARY     36   LAYER   1   ROW     3   COL     6   RATE   -100.0000    
 BOUNDARY     37   LAYER   1   ROW     3   COL     7   RATE   -100.0000    
 BOUNDARY     38   LAYER   1   ROW     3   COL     8   RATE   -100.0000    
 BOUNDARY     39   LAYER   1   ROW     3   COL     9   RATE   -100.0000    
 BOUNDARY     40   LAYER   1   ROW     3   COL    10   RATE   -100.0000    
 BOUNDARY     41   LAYER   1   ROW     3   COL    11   RATE   -100.0000    
 BOUNDARY     42   LAYER   1   ROW     3   COL    12   RATE    -21.4510    
 BOUNDARY     43   LAYER   1   ROW     3   COL    13   RATE    -1.88774    
 BOUNDARY     44   LAYER   1   ROW     3   COL    14   RATE     0.00000    
 BOUNDARY     45   LAYER   1   ROW     3   COL    15   RATE     0.00000    
 BOUNDARY     46   LAYER   1   ROW     4   COL     1   RATE     0.00000    
 BOUNDARY     47   LAYER   1   ROW     4   COL     2   RATE    -2.96939    
 BOUNDARY     48   LAYER   1   ROW     4   COL     3   RATE    -26.1370    
 BOUNDARY     49   LAYER   1   ROW     4   COL     4   RATE   -100.0000    
 BOUNDARY     50   LAYER   1   ROW     4   COL     5   RATE   -100.0000    
 BOUNDARY     51   LAYER   1   ROW     4   COL     6   RATE   -100.0000    
 BOUNDARY     52   LAYER   1   ROW     4   COL     7   RATE   -100.0000    
 BOUNDARY     53   LAYER   1   ROW     4   COL     8   RATE   -100.0000    
 BOUNDARY     54   LAYER   1   ROW     4   COL     9   RATE   -100.0000    
 BOUNDARY     55   LAYER   1   ROW     4   COL    10   RATE   -100.0000    
 BOUNDARY     56   LAYER   1   ROW     4   COL    11   RATE   -100.0000    
 BOUNDARY     57   LAYER   1   ROW     4   COL    12   RATE    -24.2515    
 BOUNDARY     58   LAYER   1   ROW     4   COL    13   RATE    -3.35099    
 BOUNDARY     59   LAYER   1   ROW     4   COL    14   RATE     0.00000    
 BOUNDARY     60   LAYER   1   ROW     4   COL    15   RATE     0.00000    
 BOUNDARY     61   LAYER   1   ROW     5   COL     1   RATE     0.00000    
 BOUNDARY     62   LAYER   1   ROW     5   COL     2   RATE    -5.94313    
 BOUNDARY     63   LAYER   1   ROW     5   COL     3   RATE    -30.6518    
 BOUNDARY     64   LAYER   1   ROW     5   COL     4   RATE   -100.0000    
 BOUNDARY     65   LAYER   1   ROW     5   COL     5   RATE   -100.0000    
 BOUNDARY     66   LAYER   1   ROW     5   COL     6   RATE   -100.0000    
 BOUNDARY     67   LAYER   1   ROW     5   COL     7   RATE   -100.0000    
 BOUNDARY     68   LAYER   1   ROW     5   COL     8   RATE   -100.0000    
 BOUNDARY     69   LAYER   1   ROW     5   COL     9   RATE   -100.0000    
 BOUNDARY     70   LAYER   1   ROW     5   COL    10   RATE   -100.0000    
 BOUNDARY     71   LAYER   1   ROW     5   COL    11   RATE   -100.0000    
 BOUNDARY     72   LAYER   1   ROW     5   COL    12   RATE    -26.1907    
 BOUNDARY     73   LAYER   1   ROW     5   COL    13   RATE    -4.26069    
 BOUNDARY     74   LAYER   1   ROW     5   COL    14   RATE     0.00000    
 BOUNDARY     75   LAYER   1   ROW     5   COL    15   RATE     0.00000    
 BOUNDARY     76   LAYER   1   ROW     6   COL     1   RATE     0.00000    
 BOUNDARY     77   LAYER   1   ROW     6   COL     2   RATE    -4.51379    
 BOUNDARY     78   LAYER   1   ROW     6   COL     3   RATE    -34.5118    
 BOUNDARY     79   LAYER   1   ROW     6   COL     4   RATE   -100.0000    
 BOUNDARY     80   LAYER   1   ROW     6   COL     5   RATE   -100.0000    
 BOUNDARY     81   LAYER   1   ROW     6   COL     6   RATE   -100.0000    
 BOUNDARY     82   LAYER   1   ROW     6   COL     7   RATE   -100.0000    
 BOUNDARY     83   LAYER   1   ROW     6   COL     8   RATE   -100.0000    
 BOUNDARY     84   LAYER   1   ROW     6   COL     9   RATE   -100.0000    
 BOUNDARY     85   LAYER   1   ROW     6   COL    10   RATE   -100.0000    
 BOUNDARY     86   LAYER   1   ROW     6   COL    11   RATE   -100.0000    
 BOUNDARY     87   LAYER   1   ROW     6   COL    12   RATE    -26.8402    
 BOUNDARY     88   LAYER   1   ROW     6   COL    13   RATE    -4.21980    
 BOUNDARY     89   LAYER   1   ROW     6   COL    14   RATE     0.00000    
 BOUNDARY     90   LAYER   1   ROW     6   COL    15   RATE     0.00000    
 BOUNDARY     91   LAYER   1   ROW     7   COL     1   RATE     0.00000    
 BOUNDARY     92   LAYER   1   ROW     7   COL     2   RATE    -1.01657    
 BOUNDARY     93   LAYER   1   ROW     7   COL     3   RATE    -41.3900    
 BOUNDARY     94   LAYER   1   ROW     7   COL     4   RATE   -100.0000    
 BOUNDARY     95   LAYER   1   ROW     7   COL     5   RATE   -100.0000    
 BOUNDARY     96   LAYER   1   ROW     7   COL     6   RATE   -100.0000    
 BOUNDARY     97   LAYER   1   ROW     7   COL     7   RATE   -100.0000    
 BOUNDARY     98   LAYER   1   ROW     7   COL     8   RATE   -100.0000    
 BOUNDARY     99   LAYER   1   ROW     7   COL     9   RATE   -100.0000    
 BOUNDARY    100   LAYER   1   ROW     7   COL    10   RATE   -100.0000    
 BOUNDARY    101   LAYER   1   ROW     7   COL    11   RATE   -100.0000    
 BOUNDARY    102   LAYER   1   ROW     7   COL    12   RATE    -26.6777    
 BOUNDARY    103   LAYER   1   ROW     7   COL    13   RATE    -3.48791    
 BOUNDARY    104   LAYER   1   ROW     7   COL    14   RATE     0.00000    
 BOUNDARY    105   LAYER   1   ROW     7   COL    15   RATE     0.00000    
 BOUNDARY    106   LAYER   1   ROW     8   COL     1   RATE     0.00000    
 BOUNDARY    107   LAYER   1   ROW     8   COL     2   RATE    -11.2585    
 BOUNDARY    108   LAYER   1   ROW     8   COL     3   RATE   -100.0000    
 BOUNDARY    109   LAYER   1   ROW     8   COL     4   RATE   -100.0000    
 BOUNDARY    110   LAYER   1   ROW     8   COL     5   RATE   -100.0000    
 BOUNDARY    111   LAYER   1   ROW     8   COL     6   RATE   -100.0000    
 BOUNDARY    112   LAYER   1   ROW     8   COL     7   RATE   -100.0000    
 BOUNDARY    113   LAYER   1   ROW     8   COL     8   RATE   -100.0000    
 BOUNDARY    114   LAYER   1   ROW     8   COL     9   RATE   -100.0000    
 BOUNDARY    115   LAYER   1   ROW     8   COL    10   RATE   -100.0000    
 BOUNDARY    116   LAYER   1   ROW     8   COL    11   RATE   -100.0000    
 BOUNDARY    117   LAYER   1   ROW     8   COL    12   RATE    -27.0648    
 BOUNDARY    118   LAYER   1   ROW     8   COL    13   RATE    -3.49079    
 BOUNDARY    119   LAYER   1   ROW     8   COL    14   RATE     0.00000    
 BOUNDARY    120   LAYER   1   ROW     8   COL    15   RATE     0.00000    
 BOUNDARY    121   LAYER   1   ROW     9   COL     1   RATE    -18.8388    
 BOUNDARY    122   LAYER   1   ROW     9   COL     2   RATE    -60.4871    
 BOUNDARY    123   LAYER   1   ROW     9   COL     3   RATE   -100.0000    
 BOUNDARY    124   LAYER   1   ROW     9   COL     4   RATE   -100.0000    
 BOUNDARY    125   LAYER   1   ROW     9   COL     5   RATE   -100.0000    
 BOUNDARY    126   LAYER   1   ROW     9   COL     6   RATE   -100.0000    
 BOUNDARY    127   LAYER   1   ROW     9   COL     7   RATE   -100.0000    
 BOUNDARY    128   LAYER   1   ROW     9   COL     8   RATE   -100.0000    
 BOUNDARY    129   LAYER   1   ROW     9   COL     9   RATE   -100.0000    
 BOUNDARY    130   LAYER   1   ROW     9   COL    10   RATE   -100.0000    
 BOUNDARY    131   LAYER   1   ROW     9   COL    11   RATE   -100.0000    
 BOUNDARY    132   LAYER   1   ROW     9   COL    12   RATE    -28.1617    
 BOUNDARY    133   LAYER   1   ROW     9   COL    13   RATE    -4.31097    
 BOUNDARY    134   LAYER   1   ROW     9   COL    14   RATE     0.00000    
 BOUNDARY    135   LAYER   1   ROW     9   COL    15   RATE     0.00000    
 BOUNDARY    136   LAYER   1   ROW    10   COL     1   RATE    -68.7011    
 BOUNDARY    137   LAYER   1   ROW    10   COL     2   RATE   -100.0000    
 BOUNDARY    138   LAYER   1   ROW    10   COL     3   RATE   -100.0000    
 BOUNDARY    139   LAYER   1   ROW    10   COL     4   RATE   -100.0000    
 BOUNDARY    140   LAYER   1   ROW    10   COL     5   RATE   -100.0000    
 BOUNDARY    141   LAYER   1   ROW    10   COL     6   RATE   -100.0000    
 BOUNDARY    142   LAYER   1   ROW    10   COL     7   RATE   -100.0000    
 BOUNDARY    143   LAYER   1   ROW    10   COL     8   RATE   -100.0000    
 BOUNDARY    144   LAYER   1   ROW    10   COL     9   RATE   -100.0000    
 BOUNDARY    145   LAYER   1   ROW    10   COL    10   RATE   -100.0000    
 BOUNDARY    146   LAYER   1   ROW    10   COL    11   RATE   -100.0000    
 BOUNDARY    147   LAYER   1   ROW    10   COL    12   RATE    -28.9566    
 BOUNDARY    148   LAYER   1   ROW    10   COL    13   RATE    -4.83813    
 BOUNDARY    149   LAYER   1   ROW    10   COL    14   RATE     0.00000    
 BOUNDARY    150   LAYER   1   ROW    10   COL    15   RATE     0.00000    

 HEAD WILL BE SAVED ON UNIT 1017 AT END OF TIME STEP   31, STRESS PERIOD    2
1
  VOLUME BUDGET FOR ENTIRE MODEL AT END OF TIME STEP   31, STRESS PERIOD   2
  ------------------------------------------------------------------------------

     CUMULATIVE VOLUME      L**3       RATES FOR THIS TIME STEP      L**3/T
     ------------------                 ------------------------

           IN:                                      IN:
           ---                                      ---
             STORAGE =       44581.6732               STORAGE =         860.0731
    WELLS NEAR RIVER =           0.0000      WELLS NEAR RIVER =           0.0000
               RIVER =           0.0000                 RIVER =           0.0000
           GHB LAKES =           0.0000             GHB LAKES =           0.0000
            RECHARGE =     2560000.0000              RECHARGE =       84843.7500
             ET SEGS =           0.0000               ET SEGS =           0.0000

            TOTAL IN =     2604581.6732              TOTAL IN =       85703.8231

          OUT:                                     OUT:
          ----                                     ----
             STORAGE =      254516.2004               STORAGE =        9109.9013
    WELLS NEAR RIVER =        2170.0000      WELLS NEAR RIVER =          70.0000
               RIVER =     1114528.7632                 RIVER =       37928.3211
           GHB LAKES =      942566.2287             GHB LAKES =       29499.1245
            RECHARGE =           0.0000              RECHARGE =           0.0000
             ET SEGS =      290800.4817               ET SEGS =        9096.4763

           TOTAL OUT =     2604581.6740             TOTAL OUT =       85703.8231

            IN - OUT =      -8.3569E-04              IN - OUT =       8.3017E-07

 PERCENT DISCREPANCY =          -0.00     PERCENT DISCREPANCY =           0.00






         TIME SUMMARY AT END OF TIME STEP   31 IN STRESS PERIOD    2
                    SECONDS     MINUTES      HOURS       DAYS        YEARS
                    -----------------------------------------------------------
   TIME STEP LENGTH  86400.      1440.0      24.000     1.00000     2.73785E-03
 STRESS PERIOD TIME 2.67840E+06  44640.      744.00      31.000     8.48734E-02
         TOTAL TIME 2.76480E+06  46080.      768.00      32.000     8.76112E-02

 REUSING STORAGE VALUES FROM LAST STRESS PERIOD
 #        k         i         j      flow      var1    var2 var3

 WEL NO.  LAYER   ROW    COL     STRESS RATE  BOUNDARY NAME         VAR1            VAR2            VAR3            
 -------------------------------------------------------------------------------------------------------------------
      1      1      2      3      -50.00                           -1.0000          -2.000          -3.000    
      2      2      3      4       0.000      WELL_1                1.0000           2.000           3.000    
      3      2      8      4       0.000      WELL_2                 4.000           5.000           6.000    

 REUSING RIVS FROM LAST STRESS PERIOD

 GHB NO.  LAYER   ROW    COL       STAGE         CONDUCTANCE  BOUNDARY NAME         
 -----------------------------------------------------------------------------------
      1      1      3      1      100.00           1503.                      
      2      1      7      1       110.0           1403.      GHB2_UPPER      
      3      1      7      1       85.00           503.0      GHB2_LOWER      

 REUSING RCHS FROM LAST STRESS PERIOD

 REUSING ETSS FROM LAST STRESS PERIOD
WEL   no.    2 value from time series:   0.0000     for time:  32.00     to  33.00    
WEL   no.    3 value from time series:   0.0000     for time:  32.00     to  33.00    
RIV   no.    1 value from time series:   101.00     for time:  32.00     to  33.00    
RIV   no.    2 value from time series:   101.00     for time:  32.00     to  33.00    
RIV   no.    3 value from time series:   111.50     for time:  32.00     to  33.00    
RIV   no.    4 value from time series:   111.50     for time:  32.00     to  33.00    
RIV   no.    5 value from time series:   115.10     for time:  32.00     to  33.00    
RIV   no.    6 value from time series:   115.10     for time:  32.00     to  33.00    
RIV   no.    7 value from time series:   104.00     for time:  32.00     to  33.00    
RIV   no.    8 value from time series:   104.00     for time:  32.00     to  33.00    
RIV   no.    9 value from time series:   113.50     for time:  32.00     to  33.00    
RIV   no.   10 value from time series:   113.50     for time:  32.00     to  33.00    
WEL   no.    2 value from time series:   0.0000     for time:  32.00     to  33.00    
WEL   no.    3 value from time series:   0.0000     for time:  32.00     to  33.00    
RIV   no.    1 value from time series:   101.00     for time:  32.00     to  33.00    
RIV   no.    2 value from time series:   101.00     for time:  32.00     to  33.00    
RIV   no.    3 value from time series:   111.50     for time:  32.00     to  33.00    
RIV   no.    4 value from time series:   111.50     for time:  32.00     to  33.00    
RIV   no.    5 value from time series:   115.10     for time:  32.00     to  33.00    
RIV   no.    6 value from time series:   115.10     for time:  32.00     to  33.00    
RIV   no.    7 value from time series:   104.00     for time:  32.00     to  33.00    
RIV   no.    8 value from time series:   104.00     for time:  32.00     to  33.00    
RIV   no.    9 value from time series:   113.50     for time:  32.00     to  33.00    
RIV   no.   10 value from time series:   113.50     for time:  32.00     to  33.00    

 OUTPUT CONTROL FOR STRESS PERIOD    3   TIME STEP    1
    SAVE BUDGET
    SAVE HEAD
    SAVE HEAD FOR ALL LAYERS
 UBDSV1 SAVING          STORAGE ON UNIT   1016 AT TIME STEP      1, STRESS PERIOD      3
 UBDSV1 SAVING FLOW RIGHT FACE  ON UNIT   1016 AT TIME STEP      1, STRESS PERIOD      3
 UBDSV1 SAVING FLOW FRONT FACE  ON UNIT   1016 AT TIME STEP      1, STRESS PERIOD      3
 UBDSV1 SAVING FLOW LOWER FACE  ON UNIT   1016 AT TIME STEP      1, STRESS PERIOD      3
 UBDSV4 SAVING WELLS NEAR RIVER ON UNIT   1016 AT TIME STEP      1, STRESS PERIOD      3

 WELLS NEAR RIVER   PERIOD  3   STEP  1
 BOUNDARY      1   LAYER   1   ROW     2   COL     3   RATE    -50.0000    
 BOUNDARY      2   LAYER   2   ROW     3   COL     4   RATE     0.00000      WELL_1
 BOUNDARY      3   LAYER   2   ROW     8   COL     4   RATE     0.00000      WELL_2
 UBDSV4 SAVING RIVER            ON UNIT   1016 AT TIME STEP      1, STRESS PERIOD      3

 RIVER              PERIOD  3   STEP  1
 BOUNDARY      1   LAYER   1   ROW     1   COL    15   RATE    -4882.00    
 BOUNDARY      2   LAYER   1   ROW     2   COL    15   RATE    -5985.05      RIV2
 BOUNDARY      3   LAYER   1   ROW     3   COL    15   RATE    -2184.86      RIV3
 BOUNDARY      4   LAYER   1   ROW     4   COL    15   RATE    -3640.31    
 BOUNDARY      5   LAYER   1   ROW     5   COL    15   RATE    -2286.95    
 BOUNDARY      6   LAYER   1   ROW     6   COL    15   RATE    -1646.32    
 BOUNDARY      7   LAYER   1   ROW     7   COL    15   RATE    -6143.81      RIVX
 BOUNDARY      8   LAYER   1   ROW     8   COL    15   RATE    -5969.80      RIVX
 BOUNDARY      9   LAYER   1   ROW     9   COL    15   RATE    -2136.55      RIVX
 BOUNDARY     10   LAYER   1   ROW    10   COL    15   RATE    -3020.49    

 GHB LAKES          PERIOD  3   STEP  1
 BOUNDARY      1   LAYER   1   ROW     3   COL     1   RATE    -14463.1    
 BOUNDARY      2   LAYER   1   ROW     7   COL     1   RATE    -1840.59      GHB2_UPPER
 BOUNDARY      3   LAYER   1   ROW     7   COL     1   RATE    -13234.9      GHB2_LOWER
 UBDSV4 SAVING RECHARGE         ON UNIT   1016 AT TIME STEP      1, STRESS PERIOD      3

 RECHARGE           PERIOD  3   STEP  1
 BOUNDARY      1   LAYER   1   ROW     1   COL     1   RATE     567.708    
 BOUNDARY      2   LAYER   1   ROW     1   COL     2   RATE     567.708    
 BOUNDARY      3   LAYER   1   ROW     1   COL     3   RATE     567.708    
 BOUNDARY      4   LAYER   1   ROW     1   COL     4   RATE     567.708    
 BOUNDARY      5   LAYER   1   ROW     1   COL     5   RATE     567.708    
 BOUNDARY      6   LAYER   1   ROW     1   COL     6   RATE     567.708    
 BOUNDARY      7   LAYER   1   ROW     1   COL     7   RATE     567.708    
 BOUNDARY      8   LAYER   1   ROW     1   COL     8   RATE     567.708    
 BOUNDARY      9   LAYER   1   ROW     1   COL     9   RATE     567.708    
 BOUNDARY     10   LAYER   1   ROW     1   COL    10   RATE     567.708    
 BOUNDARY     11   LAYER   1   ROW     1   COL    11   RATE     567.708    
 BOUNDARY     12   LAYER   1   ROW     1   COL    12   RATE     567.708    
 BOUNDARY     13   LAYER   1   ROW     1   COL    13   RATE     567.708    
 BOUNDARY     14   LAYER   1   ROW     1   COL    14   RATE     567.708    
 BOUNDARY     15   LAYER   1   ROW     1   COL    15   RATE     567.708    
 BOUNDARY     16   LAYER   1   ROW     2   COL     1   RATE     567.708    
 BOUNDARY     17   LAYER   1   ROW     2   COL     2   RATE     567.708    
 BOUNDARY     18   LAYER   1   ROW     2   COL     3   RATE     567.708    
 BOUNDARY     19   LAYER   1   ROW     2   COL     4   RATE     567.708    
 BOUNDARY     20   LAYER   1   ROW     2   COL     5   RATE     567.708    
 BOUNDARY     21   LAYER   1   ROW     2   COL     6   RATE     567.708    
 BOUNDARY     22   LAYER   1   ROW     2   COL     7   RATE     567.708    
 BOUNDARY     23   LAYER   1   ROW     2   COL     8   RATE     567.708    
 BOUNDARY     24   LAYER   1   ROW     2   COL     9   RATE     567.708    
 BOUNDARY     25   LAYER   1   ROW     2   COL    10   RATE     567.708    
 BOUNDARY     26   LAYER   1   ROW     2   COL    11   RATE     567.708    
 BOUNDARY     27   LAYER   1   ROW     2   COL    12   RATE     567.708    
 BOUNDARY     28   LAYER   1   ROW     2   COL    13   RATE     567.708    
 BOUNDARY     29   LAYER   1   ROW     2   COL    14   RATE     567.708    
 BOUNDARY     30   LAYER   1   ROW     2   COL    15   RATE     567.708    
 BOUNDARY     31   LAYER   1   ROW     3   COL     1   RATE     567.708    
 BOUNDARY     32   LAYER   1   ROW     3   COL     2   RATE     567.708    
 BOUNDARY     33   LAYER   1   ROW     3   COL     3   RATE     567.708    
 BOUNDARY     34   LAYER   1   ROW     3   COL     4   RATE     567.708    
 BOUNDARY     35   LAYER   1   ROW     3   COL     5   RATE     567.708    
 BOUNDARY     36   LAYER   1   ROW     3   COL     6   RATE     567.708    
 BOUNDARY     37   LAYER   1   ROW     3   COL     7   RATE     567.708    
 BOUNDARY     38   LAYER   1   ROW     3   COL     8   RATE     567.708    
 BOUNDARY     39   LAYER   1   ROW     3   COL     9   RATE     567.708    
 BOUNDARY     40   LAYER   1   ROW     3   COL    10   RATE     567.708    
 BOUNDARY     41   LAYER   1   ROW     3   COL    11   RATE     567.708    
 BOUNDARY     42   LAYER   1   ROW     3   COL    12   RATE     567.708    
 BOUNDARY     43   LAYER   1   ROW     3   COL    13   RATE     567.708    
 BOUNDARY     44   LAYER   1   ROW     3   COL    14   RATE     567.708    
 BOUNDARY     45   LAYER   1   ROW     3   COL    15   RATE     567.708    
 BOUNDARY     46   LAYER   1   ROW     4   COL     1   RATE     567.708    
 BOUNDARY     47   LAYER   1   ROW     4   COL     2   RATE     567.708    
 BOUNDARY     48   LAYER   1   ROW     4   COL     3   RATE     567.708    
 BOUNDARY     49   LAYER   1   ROW     4   COL     4   RATE     567.708    
 BOUNDARY     50   LAYER   1   ROW     4   COL     5   RATE     567.708    
 BOUNDARY     51   LAYER   1   ROW     4   COL     6   RATE     567.708    
 BOUNDARY     52   LAYER   1   ROW     4   COL     7   RATE     567.708    
 BOUNDARY     53   LAYER   1   ROW     4   COL     8   RATE     567.708    
 BOUNDARY     54   LAYER   1   ROW     4   COL     9   RATE     567.708    
 BOUNDARY     55   LAYER   1   ROW     4   COL    10   RATE     567.708    
 BOUNDARY     56   LAYER   1   ROW     4   COL    11   RATE     567.708    
 BOUNDARY     57   LAYER   1   ROW     4   COL    12   RATE     567.708    
 BOUNDARY     58   LAYER   1   ROW     4   COL    13   RATE     567.708    
 BOUNDARY     59   LAYER   1   ROW     4   COL    14   RATE     567.708    
 BOUNDARY     60   LAYER   1   ROW     4   COL    15   RATE     567.708    
 BOUNDARY     61   LAYER   1   ROW     5   COL     1   RATE     567.708    
 BOUNDARY     62   LAYER   1   ROW     5   COL     2   RATE     567.708    
 BOUNDARY     63   LAYER   1   ROW     5   COL     3   RATE     567.708    
 BOUNDARY     64   LAYER   1   ROW     5   COL     4   RATE     567.708    
 BOUNDARY     65   LAYER   1   ROW     5   COL     5   RATE     567.708    
 BOUNDARY     66   LAYER   1   ROW     5   COL     6   RATE     567.708    
 BOUNDARY     67   LAYER   1   ROW     5   COL     7   RATE     567.708    
 BOUNDARY     68   LAYER   1   ROW     5   COL     8   RATE     567.708    
 BOUNDARY     69   LAYER   1   ROW     5   COL     9   RATE     567.708    
 BOUNDARY     70   LAYER   1   ROW     5   COL    10   RATE     567.708    
 BOUNDARY     71   LAYER   1   ROW     5   COL    11   RATE     567.708    
 BOUNDARY     72   LAYER   1   ROW     5   COL    12   RATE     567.708    
 BOUNDARY     73   LAYER   1   ROW     5   COL    13   RATE     567.708    
 BOUNDARY     74   LAYER   1   ROW     5   COL    14   RATE     567.708    
 BOUNDARY     75   LAYER   1   ROW     5   COL    15   RATE     567.708    
 BOUNDARY     76   LAYER   1   ROW     6   COL     1   RATE     567.708    
 BOUNDARY     77   LAYER   1   ROW     6   COL     2   RATE     567.708    
 BOUNDARY     78   LAYER   1   ROW     6   COL     3   RATE     567.708    
 BOUNDARY     79   LAYER   1   ROW     6   COL     4   RATE     567.708    
 BOUNDARY     80   LAYER   1   ROW     6   COL     5   RATE     567.708    
 BOUNDARY     81   LAYER   1   ROW     6   COL     6   RATE     567.708    
 BOUNDARY     82   LAYER   1   ROW     6   COL     7   RATE     567.708    
 BOUNDARY     83   LAYER   1   ROW     6   COL     8   RATE     567.708    
 BOUNDARY     84   LAYER   1   ROW     6   COL     9   RATE     567.708    
 BOUNDARY     85   LAYER   1   ROW     6   COL    10   RATE     567.708    
 BOUNDARY     86   LAYER   1   ROW     6   COL    11   RATE     567.708    
 BOUNDARY     87   LAYER   1   ROW     6   COL    12   RATE     567.708    
 BOUNDARY     88   LAYER   1   ROW     6   COL    13   RATE     567.708    
 BOUNDARY     89   LAYER   1   ROW     6   COL    14   RATE     567.708    
 BOUNDARY     90   LAYER   1   ROW     6   COL    15   RATE     567.708    
 BOUNDARY     91   LAYER   1   ROW     7   COL     1   RATE     567.708    
 BOUNDARY     92   LAYER   1   ROW     7   COL     2   RATE     567.708    
 BOUNDARY     93   LAYER   1   ROW     7   COL     3   RATE     567.708    
 BOUNDARY     94   LAYER   1   ROW     7   COL     4   RATE     567.708    
 BOUNDARY     95   LAYER   1   ROW     7   COL     5   RATE     567.708    
 BOUNDARY     96   LAYER   1   ROW     7   COL     6   RATE     567.708    
 BOUNDARY     97   LAYER   1   ROW     7   COL     7   RATE     567.708    
 BOUNDARY     98   LAYER   1   ROW     7   COL     8   RATE     567.708    
 BOUNDARY     99   LAYER   1   ROW     7   COL     9   RATE     567.708    
 BOUNDARY    100   LAYER   1   ROW     7   COL    10   RATE     567.708    
 BOUNDARY    101   LAYER   1   ROW     7   COL    11   RATE     567.708    
 BOUNDARY    102   LAYER   1   ROW     7   COL    12   RATE     567.708    
 BOUNDARY    103   LAYER   1   ROW     7   COL    13   RATE     567.708    
 BOUNDARY    104   LAYER   1   ROW     7   COL    14   RATE     567.708    
 BOUNDARY    105   LAYER   1   ROW     7   COL    15   RATE     567.708    
 BOUNDARY    106   LAYER   1   ROW     8   COL     1   RATE     567.708    
 BOUNDARY    107   LAYER   1   ROW     8   COL     2   RATE     567.708    
 BOUNDARY    108   LAYER   1   ROW     8   COL     3   RATE     567.708    
 BOUNDARY    109   LAYER   1   ROW     8   COL     4   RATE     567.708    
 BOUNDARY    110   LAYER   1   ROW     8   COL     5   RATE     567.708    
 BOUNDARY    111   LAYER   1   ROW     8   COL     6   RATE     567.708    
 BOUNDARY    112   LAYER   1   ROW     8   COL     7   RATE     567.708    
 BOUNDARY    113   LAYER   1   ROW     8   COL     8   RATE     567.708    
 BOUNDARY    114   LAYER   1   ROW     8   COL     9   RATE     567.708    
 BOUNDARY    115   LAYER   1   ROW     8   COL    10   RATE     567.708    
 BOUNDARY    116   LAYER   1   ROW     8   COL    11   RATE     567.708    
 BOUNDARY    117   LAYER   1   ROW     8   COL    12   RATE     567.708    
 BOUNDARY    118   LAYER   1   ROW     8   COL    13   RATE     567.708    
 BOUNDARY    119   LAYER   1   ROW     8   COL    14   RATE     567.708    
 BOUNDARY    120   LAYER   1   ROW     8   COL    15   RATE     567.708    
 BOUNDARY    121   LAYER   1   ROW     9   COL     1   RATE     567.708    
 BOUNDARY    122   LAYER   1   ROW     9   COL     2   RATE     567.708    
 BOUNDARY    123   LAYER   1   ROW     9   COL     3   RATE     567.708    
 BOUNDARY    124   LAYER   1   ROW     9   COL     4   RATE     567.708    
 BOUNDARY    125   LAYER   1   ROW     9   COL     5   RATE     567.708    
 BOUNDARY    126   LAYER   1   ROW     9   COL     6   RATE     567.708    
 BOUNDARY    127   LAYER   1   ROW     9   COL     7   RATE     567.708    
 BOUNDARY    128   LAYER   1   ROW     9   COL     8   RATE     567.708    
 BOUNDARY    129   LAYER   1   ROW     9   COL     9   RATE     567.708    
 BOUNDARY    130   LAYER   1   ROW     9   COL    10   RATE     567.708    
 BOUNDARY    131   LAYER   1   ROW     9   COL    11   RATE     567.708    
 BOUNDARY    132   LAYER   1   ROW     9   COL    12   RATE     567.708    
 BOUNDARY    133   LAYER   1   ROW     9   COL    13   RATE     567.708    
 BOUNDARY    134   LAYER   1   ROW     9   COL    14   RATE     567.708    
 BOUNDARY    135   LAYER   1   ROW     9   COL    15   RATE     567.708    
 BOUNDARY    136   LAYER   1   ROW    10   COL     1   RATE     567.708    
 BOUNDARY    137   LAYER   1   ROW    10   COL     2   RATE     567.708    
 BOUNDARY    138   LAYER   1   ROW    10   COL     3   RATE     567.708    
 BOUNDARY    139   LAYER   1   ROW    10   COL     4   RATE     567.708    
 BOUNDARY    140   LAYER   1   ROW    10   COL     5   RATE     567.708    
 BOUNDARY    141   LAYER   1   ROW    10   COL     6   RATE     567.708    
 BOUNDARY    142   LAYER   1   ROW    10   COL     7   RATE     567.708    
 BOUNDARY    143   LAYER   1   ROW    10   COL     8   RATE     567.708    
 BOUNDARY    144   LAYER   1   ROW    10   COL     9   RATE     567.708    
 BOUNDARY    145   LAYER   1   ROW    10   COL    10   RATE     567.708    
 BOUNDARY    146   LAYER   1   ROW    10   COL    11   RATE     567.708    
 BOUNDARY    147   LAYER   1   ROW    10   COL    12   RATE     567.708    
 BOUNDARY    148   LAYER   1   ROW    10   COL    13   RATE     567.708    
 BOUNDARY    149   LAYER   1   ROW    10   COL    14   RATE     567.708    
 BOUNDARY    150   LAYER   1   ROW    10   COL    15   RATE     567.708    
 UBDSV4 SAVING ET SEGS          ON UNIT   1016 AT TIME STEP      1, STRESS PERIOD      3

 ET SEGS            PERIOD  3   STEP  1
 BOUNDARY      1   LAYER   1   ROW     1   COL     1   RATE    -2.15150    
 BOUNDARY      2   LAYER   1   ROW     1   COL     2   RATE    -9.00441    
 BOUNDARY      3   LAYER   1   ROW     1   COL     3   RATE    -49.1496    
 BOUNDARY      4   LAYER   1   ROW     1   COL     4   RATE   -100.0000    
 BOUNDARY      5   LAYER   1   ROW     1   COL     5   RATE   -100.0000    
 BOUNDARY      6   LAYER   1   ROW     1   COL     6   RATE   -100.0000    
 BOUNDARY      7   LAYER   1   ROW     1   COL     7   RATE   -100.0000    
 BOUNDARY      8   LAYER   1   ROW     1   COL     8   RATE   -100.0000    
 BOUNDARY      9   LAYER   1   ROW     1   COL     9   RATE   -100.0000    
 BOUNDARY     10   LAYER   1   ROW     1   COL    10   RATE   -100.0000    
 BOUNDARY     11   LAYER   1   ROW     1   COL    11   RATE   -100.0000    
 BOUNDARY     12   LAYER   1   ROW     1   COL    12   RATE    -16.7958    
 BOUNDARY     13   LAYER   1   ROW     1   COL    13   RATE     0.00000    
 BOUNDARY     14   LAYER   1   ROW     1   COL    14   RATE     0.00000    
 BOUNDARY     15   LAYER   1   ROW     1   COL    15   RATE     0.00000    
 BOUNDARY     16   LAYER   1   ROW     2   COL     1   RATE     0.00000    
 BOUNDARY     17   LAYER   1   ROW     2   COL     2   RATE    -4.48853    
 BOUNDARY     18   LAYER   1   ROW     2   COL     3   RATE    -28.2656    
 BOUNDARY     19   LAYER   1   ROW     2   COL     4   RATE   -100.0000    
 BOUNDARY     20   LAYER   1   ROW     2   COL     5   RATE   -100.0000    
 BOUNDARY     21   LAYER   1   ROW     2   COL     6   RATE   -100.0000    
 BOUNDARY     22   LAYER   1   ROW     2   COL     7   RATE   -100.0000    
 BOUNDARY     23   LAYER   1   ROW     2   COL     8   RATE   -100.0000    
 BOUNDARY     24   LAYER   1   ROW     2   COL     9   RATE   -100.0000    
 BOUNDARY     25   LAYER   1   ROW     2   COL    10   RATE   -100.0000    
 BOUNDARY     26   LAYER   1   ROW     2   COL    11   RATE   -100.0000    
 BOUNDARY     27   LAYER   1   ROW     2   COL    12   RATE    -18.5353    
 BOUNDARY     28   LAYER   1   ROW     2   COL    13   RATE   -0.107250    
 BOUNDARY     29   LAYER   1   ROW     2   COL    14   RATE     0.00000    
 BOUNDARY     30   LAYER   1   ROW     2   COL    15   RATE     0.00000    
 BOUNDARY     31   LAYER   1   ROW     3   COL     1   RATE     0.00000    
 BOUNDARY     32   LAYER   1   ROW     3   COL     2   RATE     0.00000    
 BOUNDARY     33   LAYER   1   ROW     3   COL     3   RATE    -22.2885    
 BOUNDARY     34   LAYER   1   ROW     3   COL     4   RATE   -100.0000    
 BOUNDARY     35   LAYER   1   ROW     3   COL     5   RATE   -100.0000    
 BOUNDARY     36   LAYER   1   ROW     3   COL     6   RATE   -100.0000    
 BOUNDARY     37   LAYER   1   ROW     3   COL     7   RATE   -100.0000    
 BOUNDARY     38   LAYER   1   ROW     3   COL     8   RATE   -100.0000    
 BOUNDARY     39   LAYER   1   ROW     3   COL     9   RATE   -100.0000    
 BOUNDARY     40   LAYER   1   ROW     3   COL    10   RATE   -100.0000    
 BOUNDARY     41   LAYER   1   ROW     3   COL    11   RATE   -100.0000    
 BOUNDARY     42   LAYER   1   ROW     3   COL    12   RATE    -21.4693    
 BOUNDARY     43   LAYER   1   ROW     3   COL    13   RATE    -1.89406    
 BOUNDARY     44   LAYER   1   ROW     3   COL    14   RATE     0.00000    
 BOUNDARY     45   LAYER   1   ROW     3   COL    15   RATE     0.00000    
 BOUNDARY     46   LAYER   1   ROW     4   COL     1   RATE     0.00000    
 BOUNDARY     47   LAYER   1   ROW     4   COL     2   RATE    -2.97459    
 BOUNDARY     48   LAYER   1   ROW     4   COL     3   RATE    -26.1545    
 BOUNDARY     49   LAYER   1   ROW     4   COL     4   RATE   -100.0000    
 BOUNDARY     50   LAYER   1   ROW     4   COL     5   RATE   -100.0000    
 BOUNDARY     51   LAYER   1   ROW     4   COL     6   RATE   -100.0000    
 BOUNDARY     52   LAYER   1   ROW     4   COL     7   RATE   -100.0000    
 BOUNDARY     53   LAYER   1   ROW     4   COL     8   RATE   -100.0000    
 BOUNDARY     54   LAYER   1   ROW     4   COL     9   RATE   -100.0000    
 BOUNDARY     55   LAYER   1   ROW     4   COL    10   RATE   -100.0000    
 BOUNDARY     56   LAYER   1   ROW     4   COL    11   RATE   -100.0000    
 BOUNDARY     57   LAYER   1   ROW     4   COL    12   RATE    -24.2696    
 BOUNDARY     58   LAYER   1   ROW     4   COL    13   RATE    -3.35709    
 BOUNDARY     59   LAYER   1   ROW     4   COL    14   RATE     0.00000    
 BOUNDARY     60   LAYER   1   ROW     4   COL    15   RATE     0.00000    
 BOUNDARY     61   LAYER   1   ROW     5   COL     1   RATE     0.00000    
 BOUNDARY     62   LAYER   1   ROW     5   COL     2   RATE    -5.94836    
 BOUNDARY     63   LAYER   1   ROW     5   COL     3   RATE    -30.7430    
 BOUNDARY     64   LAYER   1   ROW     5   COL     4   RATE   -100.0000    
 BOUNDARY     65   LAYER   1   ROW     5   COL     5   RATE   -100.0000    
 BOUNDARY     66   LAYER   1   ROW     5   COL     6   RATE   -100.0000    
 BOUNDARY     67   LAYER   1   ROW     5   COL     7   RATE   -100.0000    
 BOUNDARY     68   LAYER   1   ROW     5   COL     8   RATE   -100.0000    
 BOUNDARY     69   LAYER   1   ROW     5   COL     9   RATE   -100.0000    
 BOUNDARY     70   LAYER   1   ROW     5   COL    10   RATE   -100.0000    
 BOUNDARY     71   LAYER   1   ROW     5   COL    11   RATE   -100.0000    
 BOUNDARY     72   LAYER   1   ROW     5   COL    12   RATE    -26.2086    
 BOUNDARY     73   LAYER   1   ROW     5   COL    13   RATE    -4.26623    
 BOUNDARY     74   LAYER   1   ROW     5   COL    14   RATE     0.00000    
 BOUNDARY     75   LAYER   1   ROW     5   COL    15   RATE     0.00000    
 BOUNDARY     76   LAYER   1   ROW     6   COL     1   RATE     0.00000    
 BOUNDARY     77   LAYER   1   ROW     6   COL     2   RATE    -4.51893    
 BOUNDARY     78   LAYER   1   ROW     6   COL     3   RATE    -34.6023    
 BOUNDARY     79   LAYER   1   ROW     6   COL     4   RATE   -100.0000    
 BOUNDARY     80   LAYER   1   ROW     6   COL     5   RATE   -100.0000    
 BOUNDARY     81   LAYER   1   ROW     6   COL     6   RATE   -100.0000    
 BOUNDARY     82   LAYER   1   ROW     6   COL     7   RATE   -100.0000    
 BOUNDARY     83   LAYER   1   ROW     6   COL     8   RATE   -100.0000    
 BOUNDARY     84   LAYER   1   ROW     6   COL     9   RATE   -100.0000    
 BOUNDARY     85   LAYER   1   ROW     6   COL    10   RATE   -100.0000    
 BOUNDARY     86   LAYER   1   ROW     6   COL    11   RATE   -100.0000    
 BOUNDARY     87   LAYER   1   ROW     6   COL    12   RATE    -26.8580    
 BOUNDARY     88   LAYER   1   ROW     6   COL    13   RATE    -4.22525    
 BOUNDARY     89   LAYER   1   ROW     6   COL    14   RATE     0.00000    
 BOUNDARY     90   LAYER   1   ROW     6   COL    15   RATE     0.00000    
 BOUNDARY     91   LAYER   1   ROW     7   COL     1   RATE     0.00000    
 BOUNDARY     92   LAYER   1   ROW     7   COL     2   RATE    -1.02143    
 BOUNDARY     93   LAYER   1   ROW     7   COL     3   RATE    -41.4799    
 BOUNDARY     94   LAYER   1   ROW     7   COL     4   RATE   -100.0000    
 BOUNDARY     95   LAYER   1   ROW     7   COL     5   RATE   -100.0000    
 BOUNDARY     96   LAYER   1   ROW     7   COL     6   RATE   -100.0000    
 BOUNDARY     97   LAYER   1   ROW     7   COL     7   RATE   -100.0000    
 BOUNDARY     98   LAYER   1   ROW     7   COL     8   RATE   -100.0000    
 BOUNDARY     99   LAYER   1   ROW     7   COL     9   RATE   -100.0000    
 BOUNDARY    100   LAYER   1   ROW     7   COL    10   RATE   -100.0000    
 BOUNDARY    101   LAYER   1   ROW     7   COL    11   RATE   -100.0000    
 BOUNDARY    102   LAYER   1   ROW     7   COL    12   RATE    -26.6958    
 BOUNDARY    103   LAYER   1   ROW     7   COL    13   RATE    -3.49366    
 BOUNDARY    104   LAYER   1   ROW     7   COL    14   RATE     0.00000    
 BOUNDARY    105   LAYER   1   ROW     7   COL    15   RATE     0.00000    
 BOUNDARY    106   LAYER   1   ROW     8   COL     1   RATE     0.00000    
 BOUNDARY    107   LAYER   1   ROW     8   COL     2   RATE    -11.2756    
 BOUNDARY    108   LAYER   1   ROW     8   COL     3   RATE   -100.0000    
 BOUNDARY    109   LAYER   1   ROW     8   COL     4   RATE   -100.0000    
 BOUNDARY    110   LAYER   1   ROW     8   COL     5   RATE   -100.0000    
 BOUNDARY    111   LAYER   1   ROW     8   COL     6   RATE   -100.0000    
 BOUNDARY    112   LAYER   1   ROW     8   COL     7   RATE   -100.0000    
 BOUNDARY    113   LAYER   1   ROW     8   COL     8   RATE   -100.0000    
 BOUNDARY    114   LAYER   1   ROW     8   COL     9   RATE   -100.0000    
 BOUNDARY    115   LAYER   1   ROW     8   COL    10   RATE   -100.0000    
 BOUNDARY    116   LAYER   1   ROW     8   COL    11   RATE   -100.0000    
 BOUNDARY    117   LAYER   1   ROW     8   COL    12   RATE    -27.0831    
 BOUNDARY    118   LAYER   1   ROW     8   COL    13   RATE    -3.49688    
 BOUNDARY    119   LAYER   1   ROW     8   COL    14   RATE     0.00000    
 BOUNDARY    120   LAYER   1   ROW     8   COL    15   RATE     0.00000    
 BOUNDARY    121   LAYER   1   ROW     9   COL     1   RATE    -18.8561    
 BOUNDARY    122   LAYER   1   ROW     9   COL     2   RATE    -60.5779    
 BOUNDARY    123   LAYER   1   ROW     9   COL     3   RATE   -100.0000    
 BOUNDARY    124   LAYER   1   ROW     9   COL     4   RATE   -100.0000    
 BOUNDARY    125   LAYER   1   ROW     9   COL     5   RATE   -100.0000    
 BOUNDARY    126   LAYER   1   ROW     9   COL     6   RATE   -100.0000    
 BOUNDARY    127   LAYER   1   ROW     9   COL     7   RATE   -100.0000    
 BOUNDARY    128   LAYER   1   ROW     9   COL     8   RATE   -100.0000    
 BOUNDARY    129   LAYER   1   ROW     9   COL     9   RATE   -100.0000    
 BOUNDARY    130   LAYER   1   ROW     9   COL    10   RATE   -100.0000    
 BOUNDARY    131   LAYER   1   ROW     9   COL    11   RATE   -100.0000    
 BOUNDARY    132   LAYER   1   ROW     9   COL    12   RATE    -28.1803    
 BOUNDARY    133   LAYER   1   ROW     9   COL    13   RATE    -4.31769    
 BOUNDARY    134   LAYER   1   ROW     9   COL    14   RATE     0.00000    
 BOUNDARY    135   LAYER   1   ROW     9   COL    15   RATE     0.00000    
 BOUNDARY    136   LAYER   1   ROW    10   COL     1   RATE    -68.7918    
 BOUNDARY    137   LAYER   1   ROW    10   COL     2   RATE   -100.0000    
 BOUNDARY    138   LAYER   1   ROW    10   COL     3   RATE   -100.0000    
 BOUNDARY    139   LAYER   1   ROW    10   COL     4   RATE   -100.0000    
 BOUNDARY    140   LAYER   1   ROW    10   COL     5   RATE   -100.0000    
 BOUNDARY    141   LAYER   1   ROW    10   COL     6   RATE   -100.0000    
 BOUNDARY    142   LAYER   1   ROW    10   COL     7   RATE   -100.0000    
 BOUNDARY    143   LAYER   1   ROW    10   COL     8   RATE   -100.0000    
 BOUNDARY    144   LAYER   1   ROW    10   COL     9   RATE   -100.0000    
 BOUNDARY    145   LAYER   1   ROW    10   COL    10   RATE   -100.0000    
 BOUNDARY    146   LAYER   1   ROW    10   COL    11   RATE   -100.0000    
 BOUNDARY    147   LAYER   1   ROW    10   COL    12   RATE    -28.9753    
 BOUNDARY    148   LAYER   1   ROW    10   COL    13   RATE    -4.84508    
 BOUNDARY    149   LAYER   1   ROW    10   COL    14   RATE     0.00000    
 BOUNDARY    150   LAYER   1   ROW    10   COL    15   RATE     0.00000    

 HEAD WILL BE SAVED ON UNIT 1017 AT END OF TIME STEP    1, STRESS PERIOD    3
WEL   no.    2 value from time series:   0.0000     for time:  33.00     to  34.00    
WEL   no.    3 value from time series:   0.0000     for time:  33.00     to  34.00    
RIV   no.    1 value from time series:   101.00     for time:  33.00     to  34.00    
RIV   no.    2 value from time series:   101.00     for time:  33.00     to  34.00    
RIV   no.    3 value from time series:   111.50     for time:  33.00     to  34.00    
RIV   no.    4 value from time series:   111.50     for time:  33.00     to  34.00    
RIV   no.    5 value from time series:   115.10     for time:  33.00     to  34.00    
RIV   no.    6 value from time series:   115.10     for time:  33.00     to  34.00    
RIV   no.    7 value from time series:   104.00     for time:  33.00     to  34.00    
RIV   no.    8 value from time series:   104.00     for time:  33.00     to  34.00    
RIV   no.    9 value from time series:   113.50     for time:  33.00     to  34.00    
RIV   no.   10 value from time series:   113.50     for time:  33.00     to  34.00    
WEL   no.    2 value from time series:   0.0000     for time:  33.00     to  34.00    
WEL   no.    3 value from time series:   0.0000     for time:  33.00     to  34.00    
RIV   no.    1 value from time series:   101.00     for time:  33.00     to  34.00    
RIV   no.    2 value from time series:   101.00     for time:  33.00     to  34.00    
RIV   no.    3 value from time series:   111.50     for time:  33.00     to  34.00    
RIV   no.    4 value from time series:   111.50     for time:  33.00     to  34.00    
RIV   no.    5 value from time series:   115.10     for time:  33.00     to  34.00    
RIV   no.    6 value from time series:   115.10     for time:  33.00     to  34.00    
RIV   no.    7 value from time series:   104.00     for time:  33.00     to  34.00    
RIV   no.    8 value from time series:   104.00     for time:  33.00     to  34.00    
RIV   no.    9 value from time series:   113.50     for time:  33.00     to  34.00    
RIV   no.   10 value from time series:   113.50     for time:  33.00     to  34.00    

 OUTPUT CONTROL FOR STRESS PERIOD    3   TIME STEP    2
    SAVE BUDGET
    SAVE HEAD
    SAVE HEAD FOR ALL LAYERS
 UBDSV1 SAVING          STORAGE ON UNIT   1016 AT TIME STEP      2, STRESS PERIOD      3
 UBDSV1 SAVING FLOW RIGHT FACE  ON UNIT   1016 AT TIME STEP      2, STRESS PERIOD      3
 UBDSV1 SAVING FLOW FRONT FACE  ON UNIT   1016 AT TIME STEP      2, STRESS PERIOD      3
 UBDSV1 SAVING FLOW LOWER FACE  ON UNIT   1016 AT TIME STEP      2, STRESS PERIOD      3
 UBDSV4 SAVING WELLS NEAR RIVER ON UNIT   1016 AT TIME STEP      2, STRESS PERIOD      3

 WELLS NEAR RIVER   PERIOD  3   STEP  2
 BOUNDARY      1   LAYER   1   ROW     2   COL     3   RATE    -50.0000    
 BOUNDARY      2   LAYER   2   ROW     3   COL     4   RATE     0.00000      WELL_1
 BOUNDARY      3   LAYER   2   ROW     8   COL     4   RATE     0.00000      WELL_2
 UBDSV4 SAVING RIVER            ON UNIT   1016 AT TIME STEP      2, STRESS PERIOD      3

 RIVER              PERIOD  3   STEP  2
 BOUNDARY      1   LAYER   1   ROW     1   COL    15   RATE    -4875.32    
 BOUNDARY      2   LAYER   1   ROW     2   COL    15   RATE    -5979.06      RIV2
 BOUNDARY      3   LAYER   1   ROW     3   COL    15   RATE    -2182.81      RIV3
 BOUNDARY      4   LAYER   1   ROW     4   COL    15   RATE    -3638.36    
 BOUNDARY      5   LAYER   1   ROW     5   COL    15   RATE    -2284.74    
 BOUNDARY      6   LAYER   1   ROW     6   COL    15   RATE    -1643.63    
 BOUNDARY      7   LAYER   1   ROW     7   COL    15   RATE    -6139.85      RIVX
 BOUNDARY      8   LAYER   1   ROW     8   COL    15   RATE    -5966.77      RIVX
 BOUNDARY      9   LAYER   1   ROW     9   COL    15   RATE    -2135.71      RIVX
 BOUNDARY     10   LAYER   1   ROW    10   COL    15   RATE    -3020.45    

 GHB LAKES          PERIOD  3   STEP  2
 BOUNDARY      1   LAYER   1   ROW     3   COL     1   RATE    -14465.0    
 BOUNDARY      2   LAYER   1   ROW     7   COL     1   RATE    -1841.14      GHB2_UPPER
 BOUNDARY      3   LAYER   1   ROW     7   COL     1   RATE    -13235.1      GHB2_LOWER
 UBDSV4 SAVING RECHARGE         ON UNIT   1016 AT TIME STEP      2, STRESS PERIOD      3

 RECHARGE           PERIOD  3   STEP  2
 BOUNDARY      1   LAYER   1   ROW     1   COL     1   RATE     569.792    
 BOUNDARY      2   LAYER   1   ROW     1   COL     2   RATE     569.792    
 BOUNDARY      3   LAYER   1   ROW     1   COL     3   RATE     569.792    
 BOUNDARY      4   LAYER   1   ROW     1   COL     4   RATE     569.792    
 BOUNDARY      5   LAYER   1   ROW     1   COL     5   RATE     569.792    
 BOUNDARY      6   LAYER   1   ROW     1   COL     6   RATE     569.792    
 BOUNDARY      7   LAYER   1   ROW     1   COL     7   RATE     569.792    
 BOUNDARY      8   LAYER   1   ROW     1   COL     8   RATE     569.792    
 BOUNDARY      9   LAYER   1   ROW     1   COL     9   RATE     569.792    
 BOUNDARY     10   LAYER   1   ROW     1   COL    10   RATE     569.792    
 BOUNDARY     11   LAYER   1   ROW     1   COL    11   RATE     569.792    
 BOUNDARY     12   LAYER   1   ROW     1   COL    12   RATE     569.792    
 BOUNDARY     13   LAYER   1   ROW     1   COL    13   RATE     569.792    
 BOUNDARY     14   LAYER   1   ROW     1   COL    14   RATE     569.792    
 BOUNDARY     15   LAYER   1   ROW     1   COL    15   RATE     569.792    
 BOUNDARY     16   LAYER   1   ROW     2   COL     1   RATE     569.792    
 BOUNDARY     17   LAYER   1   ROW     2   COL     2   RATE     569.792    
 BOUNDARY     18   LAYER   1   ROW     2   COL     3   RATE     569.792    
 BOUNDARY     19   LAYER   1   ROW     2   COL     4   RATE     569.792    
 BOUNDARY     20   LAYER   1   ROW     2   COL     5   RATE     569.792    
 BOUNDARY     21   LAYER   1   ROW     2   COL     6   RATE     569.792    
 BOUNDARY     22   LAYER   1   ROW     2   COL     7   RATE     569.792    
 BOUNDARY     23   LAYER   1   ROW     2   COL     8   RATE     569.792    
 BOUNDARY     24   LAYER   1   ROW     2   COL     9   RATE     569.792    
 BOUNDARY     25   LAYER   1   ROW     2   COL    10   RATE     569.792    
 BOUNDARY     26   LAYER   1   ROW     2   COL    11   RATE     569.792    
 BOUNDARY     27   LAYER   1   ROW     2   COL    12   RATE     569.792    
 BOUNDARY     28   LAYER   1   ROW     2   COL    13   RATE     569.792    
 BOUNDARY     29   LAYER   1   ROW     2   COL    14   RATE     569.792    
 BOUNDARY     30   LAYER   1   ROW     2   COL    15   RATE     569.792    
 BOUNDARY     31   LAYER   1   ROW     3   COL     1   RATE     569.792    
 BOUNDARY     32   LAYER   1   ROW     3   COL     2   RATE     569.792    
 BOUNDARY     33   LAYER   1   ROW     3   COL     3   RATE     569.792    
 BOUNDARY     34   LAYER   1   ROW     3   COL     4   RATE     569.792    
 BOUNDARY     35   LAYER   1   ROW     3   COL     5   RATE     569.792    
 BOUNDARY     36   LAYER   1   ROW     3   COL     6   RATE     569.792    
 BOUNDARY     37   LAYER   1   ROW     3   COL     7   RATE     569.792    
 BOUNDARY     38   LAYER   1   ROW     3   COL     8   RATE     569.792    
 BOUNDARY     39   LAYER   1   ROW     3   COL     9   RATE     569.792    
 BOUNDARY     40   LAYER   1   ROW     3   COL    10   RATE     569.792    
 BOUNDARY     41   LAYER   1   ROW     3   COL    11   RATE     569.792    
 BOUNDARY     42   LAYER   1   ROW     3   COL    12   RATE     569.792    
 BOUNDARY     43   LAYER   1   ROW     3   COL    13   RATE     569.792    
 BOUNDARY     44   LAYER   1   ROW     3   COL    14   RATE     569.792    
 BOUNDARY     45   LAYER   1   ROW     3   COL    15   RATE     569.792    
 BOUNDARY     46   LAYER   1   ROW     4   COL     1   RATE     569.792    
 BOUNDARY     47   LAYER   1   ROW     4   COL     2   RATE     569.792    
 BOUNDARY     48   LAYER   1   ROW     4   COL     3   RATE     569.792    
 BOUNDARY     49   LAYER   1   ROW     4   COL     4   RATE     569.792    
 BOUNDARY     50   LAYER   1   ROW     4   COL     5   RATE     569.792    
 BOUNDARY     51   LAYER   1   ROW     4   COL     6   RATE     569.792    
 BOUNDARY     52   LAYER   1   ROW     4   COL     7   RATE     569.792    
 BOUNDARY     53   LAYER   1   ROW     4   COL     8   RATE     569.792    
 BOUNDARY     54   LAYER   1   ROW     4   COL     9   RATE     569.792    
 BOUNDARY     55   LAYER   1   ROW     4   COL    10   RATE     569.792    
 BOUNDARY     56   LAYER   1   ROW     4   COL    11   RATE     569.792    
 BOUNDARY     57   LAYER   1   ROW     4   COL    12   RATE     569.792    
 BOUNDARY     58   LAYER   1   ROW     4   COL    13   RATE     569.792    
 BOUNDARY     59   LAYER   1   ROW     4   COL    14   RATE     569.792    
 BOUNDARY     60   LAYER   1   ROW     4   COL    15   RATE     569.792    
 BOUNDARY     61   LAYER   1   ROW     5   COL     1   RATE     569.792    
 BOUNDARY     62   LAYER   1   ROW     5   COL     2   RATE     569.792    
 BOUNDARY     63   LAYER   1   ROW     5   COL     3   RATE     569.792    
 BOUNDARY     64   LAYER   1   ROW     5   COL     4   RATE     569.792    
 BOUNDARY     65   LAYER   1   ROW     5   COL     5   RATE     569.792    
 BOUNDARY     66   LAYER   1   ROW     5   COL     6   RATE     569.792    
 BOUNDARY     67   LAYER   1   ROW     5   COL     7   RATE     569.792    
 BOUNDARY     68   LAYER   1   ROW     5   COL     8   RATE     569.792    
 BOUNDARY     69   LAYER   1   ROW     5   COL     9   RATE     569.792    
 BOUNDARY     70   LAYER   1   ROW     5   COL    10   RATE     569.792    
 BOUNDARY     71   LAYER   1   ROW     5   COL    11   RATE     569.792    
 BOUNDARY     72   LAYER   1   ROW     5   COL    12   RATE     569.792    
 BOUNDARY     73   LAYER   1   ROW     5   COL    13   RATE     569.792    
 BOUNDARY     74   LAYER   1   ROW     5   COL    14   RATE     569.792    
 BOUNDARY     75   LAYER   1   ROW     5   COL    15   RATE     569.792    
 BOUNDARY     76   LAYER   1   ROW     6   COL     1   RATE     569.792    
 BOUNDARY     77   LAYER   1   ROW     6   COL     2   RATE     569.792    
 BOUNDARY     78   LAYER   1   ROW     6   COL     3   RATE     569.792    
 BOUNDARY     79   LAYER   1   ROW     6   COL     4   RATE     569.792    
 BOUNDARY     80   LAYER   1   ROW     6   COL     5   RATE     569.792    
 BOUNDARY     81   LAYER   1   ROW     6   COL     6   RATE     569.792    
 BOUNDARY     82   LAYER   1   ROW     6   COL     7   RATE     569.792    
 BOUNDARY     83   LAYER   1   ROW     6   COL     8   RATE     569.792    
 BOUNDARY     84   LAYER   1   ROW     6   COL     9   RATE     569.792    
 BOUNDARY     85   LAYER   1   ROW     6   COL    10   RATE     569.792    
 BOUNDARY     86   LAYER   1   ROW     6   COL    11   RATE     569.792    
 BOUNDARY     87   LAYER   1   ROW     6   COL    12   RATE     569.792    
 BOUNDARY     88   LAYER   1   ROW     6   COL    13   RATE     569.792    
 BOUNDARY     89   LAYER   1   ROW     6   COL    14   RATE     569.792    
 BOUNDARY     90   LAYER   1   ROW     6   COL    15   RATE     569.792    
 BOUNDARY     91   LAYER   1   ROW     7   COL     1   RATE     569.792    
 BOUNDARY     92   LAYER   1   ROW     7   COL     2   RATE     569.792    
 BOUNDARY     93   LAYER   1   ROW     7   COL     3   RATE     569.792    
 BOUNDARY     94   LAYER   1   ROW     7   COL     4   RATE     569.792    
 BOUNDARY     95   LAYER   1   ROW     7   COL     5   RATE     569.792    
 BOUNDARY     96   LAYER   1   ROW     7   COL     6   RATE     569.792    
 BOUNDARY     97   LAYER   1   ROW     7   COL     7   RATE     569.792    
 BOUNDARY     98   LAYER   1   ROW     7   COL     8   RATE     569.792    
 BOUNDARY     99   LAYER   1   ROW     7   COL     9   RATE     569.792    
 BOUNDARY    100   LAYER   1   ROW     7   COL    10   RATE     569.792    
 BOUNDARY    101   LAYER   1   ROW     7   COL    11   RATE     569.792    
 BOUNDARY    102   LAYER   1   ROW     7   COL    12   RATE     569.792    
 BOUNDARY    103   LAYER   1   ROW     7   COL    13   RATE     569.792    
 BOUNDARY    104   LAYER   1   ROW     7   COL    14   RATE     569.792    
 BOUNDARY    105   LAYER   1   ROW     7   COL    15   RATE     569.792    
 BOUNDARY    106   LAYER   1   ROW     8   COL     1   RATE     569.792    
 BOUNDARY    107   LAYER   1   ROW     8   COL     2   RATE     569.792    
 BOUNDARY    108   LAYER   1   ROW     8   COL     3   RATE     569.792    
 BOUNDARY    109   LAYER   1   ROW     8   COL     4   RATE     569.792    
 BOUNDARY    110   LAYER   1   ROW     8   COL     5   RATE     569.792    
 BOUNDARY    111   LAYER   1   ROW     8   COL     6   RATE     569.792    
 BOUNDARY    112   LAYER   1   ROW     8   COL     7   RATE     569.792    
 BOUNDARY    113   LAYER   1   ROW     8   COL     8   RATE     569.792    
 BOUNDARY    114   LAYER   1   ROW     8   COL     9   RATE     569.792    
 BOUNDARY    115   LAYER   1   ROW     8   COL    10   RATE     569.792    
 BOUNDARY    116   LAYER   1   ROW     8   COL    11   RATE     569.792    
 BOUNDARY    117   LAYER   1   ROW     8   COL    12   RATE     569.792    
 BOUNDARY    118   LAYER   1   ROW     8   COL    13   RATE     569.792    
 BOUNDARY    119   LAYER   1   ROW     8   COL    14   RATE     569.792    
 BOUNDARY    120   LAYER   1   ROW     8   COL    15   RATE     569.792    
 BOUNDARY    121   LAYER   1   ROW     9   COL     1   RATE     569.792    
 BOUNDARY    122   LAYER   1   ROW     9   COL     2   RATE     569.792    
 BOUNDARY    123   LAYER   1   ROW     9   COL     3   RATE     569.792    
 BOUNDARY    124   LAYER   1   ROW     9   COL     4   RATE     569.792    
 BOUNDARY    125   LAYER   1   ROW     9   COL     5   RATE     569.792    
 BOUNDARY    126   LAYER   1   ROW     9   COL     6   RATE     569.792    
 BOUNDARY    127   LAYER   1   ROW     9   COL     7   RATE     569.792    
 BOUNDARY    128   LAYER   1   ROW     9   COL     8   RATE     569.792    
 BOUNDARY    129   LAYER   1   ROW     9   COL     9   RATE     569.792    
 BOUNDARY    130   LAYER   1   ROW     9   COL    10   RATE     569.792    
 BOUNDARY    131   LAYER   1   ROW     9   COL    11   RATE     569.792    
 BOUNDARY    132   LAYER   1   ROW     9   COL    12   RATE     569.792    
 BOUNDARY    133   LAYER   1   ROW     9   COL    13   RATE     569.792    
 BOUNDARY    134   LAYER   1   ROW     9   COL    14   RATE     569.792    
 BOUNDARY    135   LAYER   1   ROW     9   COL    15   RATE     569.792    
 BOUNDARY    136   LAYER   1   ROW    10   COL     1   RATE     569.792    
 BOUNDARY    137   LAYER   1   ROW    10   COL     2   RATE     569.792    
 BOUNDARY    138   LAYER   1   ROW    10   COL     3   RATE     569.792    
 BOUNDARY    139   LAYER   1   ROW    10   COL     4   RATE     569.792    
 BOUNDARY    140   LAYER   1   ROW    10   COL     5   RATE     569.792    
 BOUNDARY    141   LAYER   1   ROW    10   COL     6   RATE     569.792    
 BOUNDARY    142   LAYER   1   ROW    10   COL     7   RATE     569.792    
 BOUNDARY    143   LAYER   1   ROW    10   COL     8   RATE     569.792    
 BOUNDARY    144   LAYER   1   ROW    10   COL     9   RATE     569.792    
 BOUNDARY    145   LAYER   1   ROW    10   COL    10   RATE     569.792    
 BOUNDARY    146   LAYER   1   ROW    10   COL    11   RATE     569.792    
 BOUNDARY    147   LAYER   1   ROW    10   COL    12   RATE     569.792    
 BOUNDARY    148   LAYER   1   ROW    10   COL    13   RATE     569.792    
 BOUNDARY    149   LAYER   1   ROW    10   COL    14   RATE     569.792    
 BOUNDARY    150   LAYER   1   ROW    10   COL    15   RATE     569.792    
 UBDSV4 SAVING ET SEGS          ON UNIT   1016 AT TIME STEP      2, STRESS PERIOD      3

 ET SEGS            PERIOD  3   STEP  2
 BOUNDARY      1   LAYER   1   ROW     1   COL     1   RATE    -2.15689    
 BOUNDARY      2   LAYER   1   ROW     1   COL     2   RATE    -9.00982    
 BOUNDARY      3   LAYER   1   ROW     1   COL     3   RATE    -49.2418    
 BOUNDARY      4   LAYER   1   ROW     1   COL     4   RATE   -100.0000    
 BOUNDARY      5   LAYER   1   ROW     1   COL     5   RATE   -100.0000    
 BOUNDARY      6   LAYER   1   ROW     1   COL     6   RATE   -100.0000    
 BOUNDARY      7   LAYER   1   ROW     1   COL     7   RATE   -100.0000    
 BOUNDARY      8   LAYER   1   ROW     1   COL     8   RATE   -100.0000    
 BOUNDARY      9   LAYER   1   ROW     1   COL     9   RATE   -100.0000    
 BOUNDARY     10   LAYER   1   ROW     1   COL    10   RATE   -100.0000    
 BOUNDARY     11   LAYER   1   ROW     1   COL    11   RATE   -100.0000    
 BOUNDARY     12   LAYER   1   ROW     1   COL    12   RATE    -16.8147    
 BOUNDARY     13   LAYER   1   ROW     1   COL    13   RATE     0.00000    
 BOUNDARY     14   LAYER   1   ROW     1   COL    14   RATE     0.00000    
 BOUNDARY     15   LAYER   1   ROW     1   COL    15   RATE     0.00000    
 BOUNDARY     16   LAYER   1   ROW     2   COL     1   RATE     0.00000    
 BOUNDARY     17   LAYER   1   ROW     2   COL     2   RATE    -4.49380    
 BOUNDARY     18   LAYER   1   ROW     2   COL     3   RATE    -28.2715    
 BOUNDARY     19   LAYER   1   ROW     2   COL     4   RATE   -100.0000    
 BOUNDARY     20   LAYER   1   ROW     2   COL     5   RATE   -100.0000    
 BOUNDARY     21   LAYER   1   ROW     2   COL     6   RATE   -100.0000    
 BOUNDARY     22   LAYER   1   ROW     2   COL     7   RATE   -100.0000    
 BOUNDARY     23   LAYER   1   ROW     2   COL     8   RATE   -100.0000    
 BOUNDARY     24   LAYER   1   ROW     2   COL     9   RATE   -100.0000    
 BOUNDARY     25   LAYER   1   ROW     2   COL    10   RATE   -100.0000    
 BOUNDARY     26   LAYER   1   ROW     2   COL    11   RATE   -100.0000    
 BOUNDARY     27   LAYER   1   ROW     2   COL    12   RATE    -18.5541    
 BOUNDARY     28   LAYER   1   ROW     2   COL    13   RATE   -0.113630    
 BOUNDARY     29   LAYER   1   ROW     2   COL    14   RATE     0.00000    
 BOUNDARY     30   LAYER   1   ROW     2   COL    15   RATE     0.00000    
 BOUNDARY     31   LAYER   1   ROW     3   COL     1   RATE     0.00000    
 BOUNDARY     32   LAYER   1   ROW     3   COL     2   RATE     0.00000    
 BOUNDARY     33   LAYER   1   ROW     3   COL     3   RATE    -22.3061    
 BOUNDARY     34   LAYER   1   ROW     3   COL     4   RATE   -100.0000    
 BOUNDARY     35   LAYER   1   ROW     3   COL     5   RATE   -100.0000    
 BOUNDARY     36   LAYER   1   ROW     3   COL     6   RATE   -100.0000    
 BOUNDARY     37   LAYER   1   ROW     3   COL     7   RATE   -100.0000    
 BOUNDARY     38   LAYER   1   ROW     3   COL     8   RATE   -100.0000    
 BOUNDARY     39   LAYER   1   ROW     3   COL     9   RATE   -100.0000    
 BOUNDARY     40   LAYER   1   ROW     3   COL    10   RATE   -100.0000    
 BOUNDARY     41   LAYER   1   ROW     3   COL    11   RATE   -100.0000    
 BOUNDARY     42   LAYER   1   ROW     3   COL    12   RATE    -21.4881    
 BOUNDARY     43   LAYER   1   ROW     3   COL    13   RATE    -1.90054    
 BOUNDARY     44   LAYER   1   ROW     3   COL    14   RATE     0.00000    
 BOUNDARY     45   LAYER   1   ROW     3   COL    15   RATE     0.00000    
 BOUNDARY     46   LAYER   1   ROW     4   COL     1   RATE     0.00000    
 BOUNDARY     47   LAYER   1   ROW     4   COL     2   RATE    -2.97995    
 BOUNDARY     48   LAYER   1   ROW     4   COL     3   RATE    -26.1725    
 BOUNDARY     49   LAYER   1   ROW     4   COL     4   RATE   -100.0000    
 BOUNDARY     50   LAYER   1   ROW     4   COL     5   RATE   -100.0000    
 BOUNDARY     51   LAYER   1   ROW     4   COL     6   RATE   -100.0000    
 BOUNDARY     52   LAYER   1   ROW     4   COL     7   RATE   -100.0000    
 BOUNDARY     53   LAYER   1   ROW     4   COL     8   RATE   -100.0000    
 BOUNDARY     54   LAYER   1   ROW     4   COL     9   RATE   -100.0000    
 BOUNDARY     55   LAYER   1   ROW     4   COL    10   RATE   -100.0000    
 BOUNDARY     56   LAYER   1   ROW     4   COL    11   RATE   -100.0000    
 BOUNDARY     57   LAYER   1   ROW     4   COL    12   RATE    -24.2883    
 BOUNDARY     58   LAYER   1   ROW     4   COL    13   RATE    -3.36334    
 BOUNDARY     59   LAYER   1   ROW     4   COL    14   RATE     0.00000    
 BOUNDARY     60   LAYER   1   ROW     4   COL    15   RATE     0.00000    
 BOUNDARY     61   LAYER   1   ROW     5   COL     1   RATE     0.00000    
 BOUNDARY     62   LAYER   1   ROW     5   COL     2   RATE    -5.95375    
 BOUNDARY     63   LAYER   1   ROW     5   COL     3   RATE    -30.8368    
 BOUNDARY     64   LAYER   1   ROW     5   COL     4   RATE   -100.0000    
 BOUNDARY     65   LAYER   1   ROW     5   COL     5   RATE   -100.0000    
 BOUNDARY     66   LAYER   1   ROW     5   COL     6   RATE   -100.0000    
 BOUNDARY     67   LAYER   1   ROW     5   COL     7   RATE   -100.0000    
 BOUNDARY     68   LAYER   1   ROW     5   COL     8   RATE   -100.0000    
 BOUNDARY     69   LAYER   1   ROW     5   COL     9   RATE   -100.0000    
 BOUNDARY     70   LAYER   1   ROW     5   COL    10   RATE   -100.0000    
 BOUNDARY     71   LAYER   1   ROW     5   COL    11   RATE   -100.0000    
 BOUNDARY     72   LAYER   1   ROW     5   COL    12   RATE    -26.2270    
 BOUNDARY     73   LAYER   1   ROW     5   COL    13   RATE    -4.27192    
 BOUNDARY     74   LAYER   1   ROW     5   COL    14   RATE     0.00000    
 BOUNDARY     75   LAYER   1   ROW     5   COL    15   RATE     0.00000    
 BOUNDARY     76   LAYER   1   ROW     6   COL     1   RATE     0.00000    
 BOUNDARY     77   LAYER   1   ROW     6   COL     2   RATE    -4.52422    
 BOUNDARY     78   LAYER   1   ROW     6   COL     3   RATE    -34.6955    
 BOUNDARY     79   LAYER   1   ROW     6   COL     4   RATE   -100.0000    
 BOUNDARY     80   LAYER   1   ROW     6   COL     5   RATE   -100.0000    
 BOUNDARY     81   LAYER   1   ROW     6   COL     6   RATE   -100.0000    
 BOUNDARY     82   LAYER   1   ROW     6   COL     7   RATE   -100.0000    
 BOUNDARY     83   LAYER   1   ROW     6   COL     8   RATE   -100.0000    
 BOUNDARY     84   LAYER   1   ROW     6   COL     9   RATE   -100.0000    
 BOUNDARY     85   LAYER   1   ROW     6   COL    10   RATE   -100.0000    
 BOUNDARY     86   LAYER   1   ROW     6   COL    11   RATE   -100.0000    
 BOUNDARY     87   LAYER   1   ROW     6   COL    12   RATE    -26.8764    
 BOUNDARY     88   LAYER   1   ROW     6   COL    13   RATE    -4.23085    
 BOUNDARY     89   LAYER   1   ROW     6   COL    14   RATE     0.00000    
 BOUNDARY     90   LAYER   1   ROW     6   COL    15   RATE     0.00000    
 BOUNDARY     91   LAYER   1   ROW     7   COL     1   RATE     0.00000    
 BOUNDARY     92   LAYER   1   ROW     7   COL     2   RATE    -1.02642    
 BOUNDARY     93   LAYER   1   ROW     7   COL     3   RATE    -41.5726    
 BOUNDARY     94   LAYER   1   ROW     7   COL     4   RATE   -100.0000    
 BOUNDARY     95   LAYER   1   ROW     7   COL     5   RATE   -100.0000    
 BOUNDARY     96   LAYER   1   ROW     7   COL     6   RATE   -100.0000    
 BOUNDARY     97   LAYER   1   ROW     7   COL     7   RATE   -100.0000    
 BOUNDARY     98   LAYER   1   ROW     7   COL     8   RATE   -100.0000    
 BOUNDARY     99   LAYER   1   ROW     7   COL     9   RATE   -100.0000    
 BOUNDARY    100   LAYER   1   ROW     7   COL    10   RATE   -100.0000    
 BOUNDARY    101   LAYER   1   ROW     7   COL    11   RATE   -100.0000    
 BOUNDARY    102   LAYER   1   ROW     7   COL    12   RATE    -26.7144    
 BOUNDARY    103   LAYER   1   ROW     7   COL    13   RATE    -3.49955    
 BOUNDARY    104   LAYER   1   ROW     7   COL    14   RATE     0.00000    
 BOUNDARY    105   LAYER   1   ROW     7   COL    15   RATE     0.00000    
 BOUNDARY    106   LAYER   1   ROW     8   COL     1   RATE     0.00000    
 BOUNDARY    107   LAYER   1   ROW     8   COL     2   RATE    -11.2932    
 BOUNDARY    108   LAYER   1   ROW     8   COL     3   RATE   -100.0000    
 BOUNDARY    109   LAYER   1   ROW     8   COL     4   RATE   -100.0000    
 BOUNDARY    110   LAYER   1   ROW     8   COL     5   RATE   -100.0000    
 BOUNDARY    111   LAYER   1   ROW     8   COL     6   RATE   -100.0000    
 BOUNDARY    112   LAYER   1   ROW     8   COL     7   RATE   -100.0000    
 BOUNDARY    113   LAYER   1   ROW     8   COL     8   RATE   -100.0000    
 BOUNDARY    114   LAYER   1   ROW     8   COL     9   RATE   -100.0000    
 BOUNDARY    115   LAYER   1   ROW     8   COL    10   RATE   -100.0000    
 BOUNDARY    116   LAYER   1   ROW     8   COL    11   RATE   -100.0000    
 BOUNDARY    117   LAYER   1   ROW     8   COL    12   RATE    -27.1019    
 BOUNDARY    118   LAYER   1   ROW     8   COL    13   RATE    -3.50313    
 BOUNDARY    119   LAYER   1   ROW     8   COL    14   RATE     0.00000    
 BOUNDARY    120   LAYER   1   ROW     8   COL    15   RATE     0.00000    
 BOUNDARY    121   LAYER   1   ROW     9   COL     1   RATE    -18.8739    
 BOUNDARY    122   LAYER   1   ROW     9   COL     2   RATE    -60.6714    
 BOUNDARY    123   LAYER   1   ROW     9   COL     3   RATE   -100.0000    
 BOUNDARY    124   LAYER   1   ROW     9   COL     4   RATE   -100.0000    
 BOUNDARY    125   LAYER   1   ROW     9   COL     5   RATE   -100.0000    
 BOUNDARY    126   LAYER   1   ROW     9   COL     6   RATE   -100.0000    
 BOUNDARY    127   LAYER   1   ROW     9   COL     7   RATE   -100.0000    
 BOUNDARY    128   LAYER   1   ROW     9   COL     8   RATE   -100.0000    
 BOUNDARY    129   LAYER   1   ROW     9   COL     9   RATE   -100.0000    
 BOUNDARY    130   LAYER   1   ROW     9   COL    10   RATE   -100.0000    
 BOUNDARY    131   LAYER   1   ROW     9   COL    11   RATE   -100.0000    
 BOUNDARY    132   LAYER   1   ROW     9   COL    12   RATE    -28.1995    
 BOUNDARY    133   LAYER   1   ROW     9   COL    13   RATE    -4.32458    
 BOUNDARY    134   LAYER   1   ROW     9   COL    14   RATE     0.00000    
 BOUNDARY    135   LAYER   1   ROW     9   COL    15   RATE     0.00000    
 BOUNDARY    136   LAYER   1   ROW    10   COL     1   RATE    -68.8853    
 BOUNDARY    137   LAYER   1   ROW    10   COL     2   RATE   -100.0000    
 BOUNDARY    138   LAYER   1   ROW    10   COL     3   RATE   -100.0000    
 BOUNDARY    139   LAYER   1   ROW    10   COL     4   RATE   -100.0000    
 BOUNDARY    140   LAYER   1   ROW    10   COL     5   RATE   -100.0000    
 BOUNDARY    141   LAYER   1   ROW    10   COL     6   RATE   -100.0000    
 BOUNDARY    142   LAYER   1   ROW    10   COL     7   RATE   -100.0000    
 BOUNDARY    143   LAYER   1   ROW    10   COL     8   RATE   -100.0000    
 BOUNDARY    144   LAYER   1   ROW    10   COL     9   RATE   -100.0000    
 BOUNDARY    145   LAYER   1   ROW    10   COL    10   RATE   -100.0000    
 BOUNDARY    146   LAYER   1   ROW    10   COL    11   RATE   -100.0000    
 BOUNDARY    147   LAYER   1   ROW    10   COL    12   RATE    -28.9946    
 BOUNDARY    148   LAYER   1   ROW    10   COL    13   RATE    -4.85220    
 BOUNDARY    149   LAYER   1   ROW    10   COL    14   RATE     0.00000    
 BOUNDARY    150   LAYER   1   ROW    10   COL    15   RATE     0.00000    

 HEAD WILL BE SAVED ON UNIT 1017 AT END OF TIME STEP    2, STRESS PERIOD    3
WEL   no.    2 value from time series:   0.0000     for time:  34.00     to  35.00    
WEL   no.    3 value from time series:   0.0000     for time:  34.00     to  35.00    
RIV   no.    1 value from time series:   101.00     for time:  34.00     to  35.00    
RIV   no.    2 value from time series:   101.00     for time:  34.00     to  35.00    
RIV   no.    3 value from time series:   111.50     for time:  34.00     to  35.00    
RIV   no.    4 value from time series:   111.50     for time:  34.00     to  35.00    
RIV   no.    5 value from time series:   115.10     for time:  34.00     to  35.00    
RIV   no.    6 value from time series:   115.10     for time:  34.00     to  35.00    
RIV   no.    7 value from time series:   104.00     for time:  34.00     to  35.00    
RIV   no.    8 value from time series:   104.00     for time:  34.00     to  35.00    
RIV   no.    9 value from time series:   113.50     for time:  34.00     to  35.00    
RIV   no.   10 value from time series:   113.50     for time:  34.00     to  35.00    
WEL   no.    2 value from time series:   0.0000     for time:  34.00     to  35.00    
WEL   no.    3 value from time series:   0.0000     for time:  34.00     to  35.00    
RIV   no.    1 value from time series:   101.00     for time:  34.00     to  35.00    
RIV   no.    2 value from time series:   101.00     for time:  34.00     to  35.00    
RIV   no.    3 value from time series:   111.50     for time:  34.00     to  35.00    
RIV   no.    4 value from time series:   111.50     for time:  34.00     to  35.00    
RIV   no.    5 value from time series:   115.10     for time:  34.00     to  35.00    
RIV   no.    6 value from time series:   115.10     for time:  34.00     to  35.00    
RIV   no.    7 value from time series:   104.00     for time:  34.00     to  35.00    
RIV   no.    8 value from time series:   104.00     for time:  34.00     to  35.00    
RIV   no.    9 value from time series:   113.50     for time:  34.00     to  35.00    
RIV   no.   10 value from time series:   113.50     for time:  34.00     to  35.00    

 OUTPUT CONTROL FOR STRESS PERIOD    3   TIME STEP    3
    SAVE BUDGET
    SAVE HEAD
    SAVE HEAD FOR ALL LAYERS
 UBDSV1 SAVING          STORAGE ON UNIT   1016 AT TIME STEP      3, STRESS PERIOD      3
 UBDSV1 SAVING FLOW RIGHT FACE  ON UNIT   1016 AT TIME STEP      3, STRESS PERIOD      3
 UBDSV1 SAVING FLOW FRONT FACE  ON UNIT   1016 AT TIME STEP      3, STRESS PERIOD      3
 UBDSV1 SAVING FLOW LOWER FACE  ON UNIT   1016 AT TIME STEP      3, STRESS PERIOD      3
 UBDSV4 SAVING WELLS NEAR RIVER ON UNIT   1016 AT TIME STEP      3, STRESS PERIOD      3

 WELLS NEAR RIVER   PERIOD  3   STEP  3
 BOUNDARY      1   LAYER   1   ROW     2   COL     3   RATE    -50.0000    
 BOUNDARY      2   LAYER   2   ROW     3   COL     4   RATE     0.00000      WELL_1
 BOUNDARY      3   LAYER   2   ROW     8   COL     4   RATE     0.00000      WELL_2
 UBDSV4 SAVING RIVER            ON UNIT   1016 AT TIME STEP      3, STRESS PERIOD      3

 RIVER              PERIOD  3   STEP  3
 BOUNDARY      1   LAYER   1   ROW     1   COL    15   RATE    -4869.07    
 BOUNDARY      2   LAYER   1   ROW     2   COL    15   RATE    -5973.49      RIV2
 BOUNDARY      3   LAYER   1   ROW     3   COL    15   RATE    -2180.95      RIV3
 BOUNDARY      4   LAYER   1   ROW     4   COL    15   RATE    -3636.63    
 BOUNDARY      5   LAYER   1   ROW     5   COL    15   RATE    -2282.75    
 BOUNDARY      6   LAYER   1   ROW     6   COL    15   RATE    -1641.17    
 BOUNDARY      7   LAYER   1   ROW     7   COL    15   RATE    -6136.21      RIVX
 BOUNDARY      8   LAYER   1   ROW     8   COL    15   RATE    -5964.01      RIVX
 BOUNDARY      9   LAYER   1   ROW     9   COL    15   RATE    -2135.03      RIVX
 BOUNDARY     10   LAYER   1   ROW    10   COL    15   RATE    -3020.55    

 GHB LAKES          PERIOD  3   STEP  3
 BOUNDARY      1   LAYER   1   ROW     3   COL     1   RATE    -14466.9    
 BOUNDARY      2   LAYER   1   ROW     7   COL     1   RATE    -1841.87      GHB2_UPPER
 BOUNDARY      3   LAYER   1   ROW     7   COL     1   RATE    -13235.3      GHB2_LOWER
 UBDSV4 SAVING RECHARGE         ON UNIT   1016 AT TIME STEP      3, STRESS PERIOD      3

 RECHARGE           PERIOD  3   STEP  3
 BOUNDARY      1   LAYER   1   ROW     1   COL     1   RATE     571.875    
 BOUNDARY      2   LAYER   1   ROW     1   COL     2   RATE     571.875    
 BOUNDARY      3   LAYER   1   ROW     1   COL     3   RATE     571.875    
 BOUNDARY      4   LAYER   1   ROW     1   COL     4   RATE     571.875    
 BOUNDARY      5   LAYER   1   ROW     1   COL     5   RATE     571.875    
 BOUNDARY      6   LAYER   1   ROW     1   COL     6   RATE     571.875    
 BOUNDARY      7   LAYER   1   ROW     1   COL     7   RATE     571.875    
 BOUNDARY      8   LAYER   1   ROW     1   COL     8   RATE     571.875    
 BOUNDARY      9   LAYER   1   ROW     1   COL     9   RATE     571.875    
 BOUNDARY     10   LAYER   1   ROW     1   COL    10   RATE     571.875    
 BOUNDARY     11   LAYER   1   ROW     1   COL    11   RATE     571.875    
 BOUNDARY     12   LAYER   1   ROW     1   COL    12   RATE     571.875    
 BOUNDARY     13   LAYER   1   ROW     1   COL    13   RATE     571.875    
 BOUNDARY     14   LAYER   1   ROW     1   COL    14   RATE     571.875    
 BOUNDARY     15   LAYER   1   ROW     1   COL    15   RATE     571.875    
 BOUNDARY     16   LAYER   1   ROW     2   COL     1   RATE     571.875    
 BOUNDARY     17   LAYER   1   ROW     2   COL     2   RATE     571.875    
 BOUNDARY     18   LAYER   1   ROW     2   COL     3   RATE     571.875    
 BOUNDARY     19   LAYER   1   ROW     2   COL     4   RATE     571.875    
 BOUNDARY     20   LAYER   1   ROW     2   COL     5   RATE     571.875    
 BOUNDARY     21   LAYER   1   ROW     2   COL     6   RATE     571.875    
 BOUNDARY     22   LAYER   1   ROW     2   COL     7   RATE     571.875    
 BOUNDARY     23   LAYER   1   ROW     2   COL     8   RATE     571.875    
 BOUNDARY     24   LAYER   1   ROW     2   COL     9   RATE     571.875    
 BOUNDARY     25   LAYER   1   ROW     2   COL    10   RATE     571.875    
 BOUNDARY     26   LAYER   1   ROW     2   COL    11   RATE     571.875    
 BOUNDARY     27   LAYER   1   ROW     2   COL    12   RATE     571.875    
 BOUNDARY     28   LAYER   1   ROW     2   COL    13   RATE     571.875    
 BOUNDARY     29   LAYER   1   ROW     2   COL    14   RATE     571.875    
 BOUNDARY     30   LAYER   1   ROW     2   COL    15   RATE     571.875    
 BOUNDARY     31   LAYER   1   ROW     3   COL     1   RATE     571.875    
 BOUNDARY     32   LAYER   1   ROW     3   COL     2   RATE     571.875    
 BOUNDARY     33   LAYER   1   ROW     3   COL     3   RATE     571.875    
 BOUNDARY     34   LAYER   1   ROW     3   COL     4   RATE     571.875    
 BOUNDARY     35   LAYER   1   ROW     3   COL     5   RATE     571.875    
 BOUNDARY     36   LAYER   1   ROW     3   COL     6   RATE     571.875    
 BOUNDARY     37   LAYER   1   ROW     3   COL     7   RATE     571.875    
 BOUNDARY     38   LAYER   1   ROW     3   COL     8   RATE     571.875    
 BOUNDARY     39   LAYER   1   ROW     3   COL     9   RATE     571.875    
 BOUNDARY     40   LAYER   1   ROW     3   COL    10   RATE     571.875    
 BOUNDARY     41   LAYER   1   ROW     3   COL    11   RATE     571.875    
 BOUNDARY     42   LAYER   1   ROW     3   COL    12   RATE     571.875    
 BOUNDARY     43   LAYER   1   ROW     3   COL    13   RATE     571.875    
 BOUNDARY     44   LAYER   1   ROW     3   COL    14   RATE     571.875    
 BOUNDARY     45   LAYER   1   ROW     3   COL    15   RATE     571.875    
 BOUNDARY     46   LAYER   1   ROW     4   COL     1   RATE     571.875    
 BOUNDARY     47   LAYER   1   ROW     4   COL     2   RATE     571.875    
 BOUNDARY     48   LAYER   1   ROW     4   COL     3   RATE     571.875    
 BOUNDARY     49   LAYER   1   ROW     4   COL     4   RATE     571.875    
 BOUNDARY     50   LAYER   1   ROW     4   COL     5   RATE     571.875    
 BOUNDARY     51   LAYER   1   ROW     4   COL     6   RATE     571.875    
 BOUNDARY     52   LAYER   1   ROW     4   COL     7   RATE     571.875    
 BOUNDARY     53   LAYER   1   ROW     4   COL     8   RATE     571.875    
 BOUNDARY     54   LAYER   1   ROW     4   COL     9   RATE     571.875    
 BOUNDARY     55   LAYER   1   ROW     4   COL    10   RATE     571.875    
 BOUNDARY     56   LAYER   1   ROW     4   COL    11   RATE     571.875    
 BOUNDARY     57   LAYER   1   ROW     4   COL    12   RATE     571.875    
 BOUNDARY     58   LAYER   1   ROW     4   COL    13   RATE     571.875    
 BOUNDARY     59   LAYER   1   ROW     4   COL    14   RATE     571.875    
 BOUNDARY     60   LAYER   1   ROW     4   COL    15   RATE     571.875    
 BOUNDARY     61   LAYER   1   ROW     5   COL     1   RATE     571.875    
 BOUNDARY     62   LAYER   1   ROW     5   COL     2   RATE     571.875    
 BOUNDARY     63   LAYER   1   ROW     5   COL     3   RATE     571.875    
 BOUNDARY     64   LAYER   1   ROW     5   COL     4   RATE     571.875    
 BOUNDARY     65   LAYER   1   ROW     5   COL     5   RATE     571.875    
 BOUNDARY     66   LAYER   1   ROW     5   COL     6   RATE     571.875    
 BOUNDARY     67   LAYER   1   ROW     5   COL     7   RATE     571.875    
 BOUNDARY     68   LAYER   1   ROW     5   COL     8   RATE     571.875    
 BOUNDARY     69   LAYER   1   ROW     5   COL     9   RATE     571.875    
 BOUNDARY     70   LAYER   1   ROW     5   COL    10   RATE     571.875    
 BOUNDARY     71   LAYER   1   ROW     5   COL    11   RATE     571.875    
 BOUNDARY     72   LAYER   1   ROW     5   COL    12   RATE     571.875    
 BOUNDARY     73   LAYER   1   ROW     5   COL    13   RATE     571.875    
 BOUNDARY     74   LAYER   1   ROW     5   COL    14   RATE     571.875    
 BOUNDARY     75   LAYER   1   ROW     5   COL    15   RATE     571.875    
 BOUNDARY     76   LAYER   1   ROW     6   COL     1   RATE     571.875    
 BOUNDARY     77   LAYER   1   ROW     6   COL     2   RATE     571.875    
 BOUNDARY     78   LAYER   1   ROW     6   COL     3   RATE     571.875    
 BOUNDARY     79   LAYER   1   ROW     6   COL     4   RATE     571.875    
 BOUNDARY     80   LAYER   1   ROW     6   COL     5   RATE     571.875    
 BOUNDARY     81   LAYER   1   ROW     6   COL     6   RATE     571.875    
 BOUNDARY     82   LAYER   1   ROW     6   COL     7   RATE     571.875    
 BOUNDARY     83   LAYER   1   ROW     6   COL     8   RATE     571.875    
 BOUNDARY     84   LAYER   1   ROW     6   COL     9   RATE     571.875    
 BOUNDARY     85   LAYER   1   ROW     6   COL    10   RATE     571.875    
 BOUNDARY     86   LAYER   1   ROW     6   COL    11   RATE     571.875    
 BOUNDARY     87   LAYER   1   ROW     6   COL    12   RATE     571.875    
 BOUNDARY     88   LAYER   1   ROW     6   COL    13   RATE     571.875    
 BOUNDARY     89   LAYER   1   ROW     6   COL    14   RATE     571.875    
 BOUNDARY     90   LAYER   1   ROW     6   COL    15   RATE     571.875    
 BOUNDARY     91   LAYER   1   ROW     7   COL     1   RATE     571.875    
 BOUNDARY     92   LAYER   1   ROW     7   COL     2   RATE     571.875    
 BOUNDARY     93   LAYER   1   ROW     7   COL     3   RATE     571.875    
 BOUNDARY     94   LAYER   1   ROW     7   COL     4   RATE     571.875    
 BOUNDARY     95   LAYER   1   ROW     7   COL     5   RATE     571.875    
 BOUNDARY     96   LAYER   1   ROW     7   COL     6   RATE     571.875    
 BOUNDARY     97   LAYER   1   ROW     7   COL     7   RATE     571.875    
 BOUNDARY     98   LAYER   1   ROW     7   COL     8   RATE     571.875    
 BOUNDARY     99   LAYER   1   ROW     7   COL     9   RATE     571.875    
 BOUNDARY    100   LAYER   1   ROW     7   COL    10   RATE     571.875    
 BOUNDARY    101   LAYER   1   ROW     7   COL    11   RATE     571.875    
 BOUNDARY    102   LAYER   1   ROW     7   COL    12   RATE     571.875    
 BOUNDARY    103   LAYER   1   ROW     7   COL    13   RATE     571.875    
 BOUNDARY    104   LAYER   1   ROW     7   COL    14   RATE     571.875    
 BOUNDARY    105   LAYER   1   ROW     7   COL    15   RATE     571.875    
 BOUNDARY    106   LAYER   1   ROW     8   COL     1   RATE     571.875    
 BOUNDARY    107   LAYER   1   ROW     8   COL     2   RATE     571.875    
 BOUNDARY    108   LAYER   1   ROW     8   COL     3   RATE     571.875    
 BOUNDARY    109   LAYER   1   ROW     8   COL     4   RATE     571.875    
 BOUNDARY    110   LAYER   1   ROW     8   COL     5   RATE     571.875    
 BOUNDARY    111   LAYER   1   ROW     8   COL     6   RATE     571.875    
 BOUNDARY    112   LAYER   1   ROW     8   COL     7   RATE     571.875    
 BOUNDARY    113   LAYER   1   ROW     8   COL     8   RATE     571.875    
 BOUNDARY    114   LAYER   1   ROW     8   COL     9   RATE     571.875    
 BOUNDARY    115   LAYER   1   ROW     8   COL    10   RATE     571.875    
 BOUNDARY    116   LAYER   1   ROW     8   COL    11   RATE     571.875    
 BOUNDARY    117   LAYER   1   ROW     8   COL    12   RATE     571.875    
 BOUNDARY    118   LAYER   1   ROW     8   COL    13   RATE     571.875    
 BOUNDARY    119   LAYER   1   ROW     8   COL    14   RATE     571.875    
 BOUNDARY    120   LAYER   1   ROW     8   COL    15   RATE     571.875    
 BOUNDARY    121   LAYER   1   ROW     9   COL     1   RATE     571.875    
 BOUNDARY    122   LAYER   1   ROW     9   COL     2   RATE     571.875    
 BOUNDARY    123   LAYER   1   ROW     9   COL     3   RATE     571.875    
 BOUNDARY    124   LAYER   1   ROW     9   COL     4   RATE     571.875    
 BOUNDARY    125   LAYER   1   ROW     9   COL     5   RATE     571.875    
 BOUNDARY    126   LAYER   1   ROW     9   COL     6   RATE     571.875    
 BOUNDARY    127   LAYER   1   ROW     9   COL     7   RATE     571.875    
 BOUNDARY    128   LAYER   1   ROW     9   COL     8   RATE     571.875    
 BOUNDARY    129   LAYER   1   ROW     9   COL     9   RATE     571.875    
 BOUNDARY    130   LAYER   1   ROW     9   COL    10   RATE     571.875    
 BOUNDARY    131   LAYER   1   ROW     9   COL    11   RATE     571.875    
 BOUNDARY    132   LAYER   1   ROW     9   COL    12   RATE     571.875    
 BOUNDARY    133   LAYER   1   ROW     9   COL    13   RATE     571.875    
 BOUNDARY    134   LAYER   1   ROW     9   COL    14   RATE     571.875    
 BOUNDARY    135   LAYER   1   ROW     9   COL    15   RATE     571.875    
 BOUNDARY    136   LAYER   1   ROW    10   COL     1   RATE     571.875    
 BOUNDARY    137   LAYER   1   ROW    10   COL     2   RATE     571.875    
 BOUNDARY    138   LAYER   1   ROW    10   COL     3   RATE     571.875    
 BOUNDARY    139   LAYER   1   ROW    10   COL     4   RATE     571.875    
 BOUNDARY    140   LAYER   1   ROW    10   COL     5   RATE     571.875    
 BOUNDARY    141   LAYER   1   ROW    10   COL     6   RATE     571.875    
 BOUNDARY    142   LAYER   1   ROW    10   COL     7   RATE     571.875    
 BOUNDARY    143   LAYER   1   ROW    10   COL     8   RATE     571.875    
 BOUNDARY    144   LAYER   1   ROW    10   COL     9   RATE     571.875    
 BOUNDARY    145   LAYER   1   ROW    10   COL    10   RATE     571.875    
 BOUNDARY    146   LAYER   1   ROW    10   COL    11   RATE     571.875    
 BOUNDARY    147   LAYER   1   ROW    10   COL    12   RATE     571.875    
 BOUNDARY    148   LAYER   1   ROW    10   COL    13   RATE     571.875    
 BOUNDARY    149   LAYER   1   ROW    10   COL    14   RATE     571.875    
 BOUNDARY    150   LAYER   1   ROW    10   COL    15   RATE     571.875    
 UBDSV4 SAVING ET SEGS          ON UNIT   1016 AT TIME STEP      3, STRESS PERIOD      3

 ET SEGS            PERIOD  3   STEP  3
 BOUNDARY      1   LAYER   1   ROW     1   COL     1   RATE    -2.16244    
 BOUNDARY      2   LAYER   1   ROW     1   COL     2   RATE    -9.01539    
 BOUNDARY      3   LAYER   1   ROW     1   COL     3   RATE    -49.3360    
 BOUNDARY      4   LAYER   1   ROW     1   COL     4   RATE   -100.0000    
 BOUNDARY      5   LAYER   1   ROW     1   COL     5   RATE   -100.0000    
 BOUNDARY      6   LAYER   1   ROW     1   COL     6   RATE   -100.0000    
 BOUNDARY      7   LAYER   1   ROW     1   COL     7   RATE   -100.0000    
 BOUNDARY      8   LAYER   1   ROW     1   COL     8   RATE   -100.0000    
 BOUNDARY      9   LAYER   1   ROW     1   COL     9   RATE   -100.0000    
 BOUNDARY     10   LAYER   1   ROW     1   COL    10   RATE   -100.0000    
 BOUNDARY     11   LAYER   1   ROW     1   COL    11   RATE   -100.0000    
 BOUNDARY     12   LAYER   1   ROW     1   COL    12   RATE    -16.8341    
 BOUNDARY     13   LAYER   1   ROW     1   COL    13   RATE     0.00000    
 BOUNDARY     14   LAYER   1   ROW     1   COL    14   RATE     0.00000    
 BOUNDARY     15   LAYER   1   ROW     1   COL    15   RATE     0.00000    
 BOUNDARY     16   LAYER   1   ROW     2   COL     1   RATE     0.00000    
 BOUNDARY     17   LAYER   1   ROW     2   COL     2   RATE    -4.49919    
 BOUNDARY     18   LAYER   1   ROW     2   COL     3   RATE    -28.2786    
 BOUNDARY     19   LAYER   1   ROW     2   COL     4   RATE   -100.0000    
 BOUNDARY     20   LAYER   1   ROW     2   COL     5   RATE   -100.0000    
 BOUNDARY     21   LAYER   1   ROW     2   COL     6   RATE   -100.0000    
 BOUNDARY     22   LAYER   1   ROW     2   COL     7   RATE   -100.0000    
 BOUNDARY     23   LAYER   1   ROW     2   COL     8   RATE   -100.0000    
 BOUNDARY     24   LAYER   1   ROW     2   COL     9   RATE   -100.0000    
 BOUNDARY     25   LAYER   1   ROW     2   COL    10   RATE   -100.0000    
 BOUNDARY     26   LAYER   1   ROW     2   COL    11   RATE   -100.0000    
 BOUNDARY     27   LAYER   1   ROW     2   COL    12   RATE    -18.5735    
 BOUNDARY     28   LAYER   1   ROW     2   COL    13   RATE   -0.120156    
 BOUNDARY     29   LAYER   1   ROW     2   COL    14   RATE     0.00000    
 BOUNDARY     30   LAYER   1   ROW     2   COL    15   RATE     0.00000    
 BOUNDARY     31   LAYER   1   ROW     3   COL     1   RATE     0.00000    
 BOUNDARY     32   LAYER   1   ROW     3   COL     2   RATE     0.00000    
 BOUNDARY     33   LAYER   1   ROW     3   COL     3   RATE    -22.3242    
 BOUNDARY     34   LAYER   1   ROW     3   COL     4   RATE   -100.0000    
 BOUNDARY     35   LAYER   1   ROW     3   COL     5   RATE   -100.0000    
 BOUNDARY     36   LAYER   1   ROW     3   COL     6   RATE   -100.0000    
 BOUNDARY     37   LAYER   1   ROW     3   COL     7   RATE   -100.0000    
 BOUNDARY     38   LAYER   1   ROW     3   COL     8   RATE   -100.0000    
 BOUNDARY     39   LAYER   1   ROW     3   COL     9   RATE   -100.0000    
 BOUNDARY     40   LAYER   1   ROW     3   COL    10   RATE   -100.0000    
 BOUNDARY     41   LAYER   1   ROW     3   COL    11   RATE   -100.0000    
 BOUNDARY     42   LAYER   1   ROW     3   COL    12   RATE    -21.5075    
 BOUNDARY     43   LAYER   1   ROW     3   COL    13   RATE    -1.90717    
 BOUNDARY     44   LAYER   1   ROW     3   COL    14   RATE     0.00000    
 BOUNDARY     45   LAYER   1   ROW     3   COL    15   RATE     0.00000    
 BOUNDARY     46   LAYER   1   ROW     4   COL     1   RATE     0.00000    
 BOUNDARY     47   LAYER   1   ROW     4   COL     2   RATE    -2.98546    
 BOUNDARY     48   LAYER   1   ROW     4   COL     3   RATE    -26.1910    
 BOUNDARY     49   LAYER   1   ROW     4   COL     4   RATE   -100.0000    
 BOUNDARY     50   LAYER   1   ROW     4   COL     5   RATE   -100.0000    
 BOUNDARY     51   LAYER   1   ROW     4   COL     6   RATE   -100.0000    
 BOUNDARY     52   LAYER   1   ROW     4   COL     7   RATE   -100.0000    
 BOUNDARY     53   LAYER   1   ROW     4   COL     8   RATE   -100.0000    
 BOUNDARY     54   LAYER   1   ROW     4   COL     9   RATE   -100.0000    
 BOUNDARY     55   LAYER   1   ROW     4   COL    10   RATE   -100.0000    
 BOUNDARY     56   LAYER   1   ROW     4   COL    11   RATE   -100.0000    
 BOUNDARY     57   LAYER   1   ROW     4   COL    12   RATE    -24.3076    
 BOUNDARY     58   LAYER   1   ROW     4   COL    13   RATE    -3.36974    
 BOUNDARY     59   LAYER   1   ROW     4   COL    14   RATE     0.00000    
 BOUNDARY     60   LAYER   1   ROW     4   COL    15   RATE     0.00000    
 BOUNDARY     61   LAYER   1   ROW     5   COL     1   RATE     0.00000    
 BOUNDARY     62   LAYER   1   ROW     5   COL     2   RATE    -5.95931    
 BOUNDARY     63   LAYER   1   ROW     5   COL     3   RATE    -30.9335    
 BOUNDARY     64   LAYER   1   ROW     5   COL     4   RATE   -100.0000    
 BOUNDARY     65   LAYER   1   ROW     5   COL     5   RATE   -100.0000    
 BOUNDARY     66   LAYER   1   ROW     5   COL     6   RATE   -100.0000    
 BOUNDARY     67   LAYER   1   ROW     5   COL     7   RATE   -100.0000    
 BOUNDARY     68   LAYER   1   ROW     5   COL     8   RATE   -100.0000    
 BOUNDARY     69   LAYER   1   ROW     5   COL     9   RATE   -100.0000    
 BOUNDARY     70   LAYER   1   ROW     5   COL    10   RATE   -100.0000    
 BOUNDARY     71   LAYER   1   ROW     5   COL    11   RATE   -100.0000    
 BOUNDARY     72   LAYER   1   ROW     5   COL    12   RATE    -26.2460    
 BOUNDARY     73   LAYER   1   ROW     5   COL    13   RATE    -4.27776    
 BOUNDARY     74   LAYER   1   ROW     5   COL    14   RATE     0.00000    
 BOUNDARY     75   LAYER   1   ROW     5   COL    15   RATE     0.00000    
 BOUNDARY     76   LAYER   1   ROW     6   COL     1   RATE     0.00000    
 BOUNDARY     77   LAYER   1   ROW     6   COL     2   RATE    -4.52967    
 BOUNDARY     78   LAYER   1   ROW     6   COL     3   RATE    -34.7915    
 BOUNDARY     79   LAYER   1   ROW     6   COL     4   RATE   -100.0000    
 BOUNDARY     80   LAYER   1   ROW     6   COL     5   RATE   -100.0000    
 BOUNDARY     81   LAYER   1   ROW     6   COL     6   RATE   -100.0000    
 BOUNDARY     82   LAYER   1   ROW     6   COL     7   RATE   -100.0000    
 BOUNDARY     83   LAYER   1   ROW     6   COL     8   RATE   -100.0000    
 BOUNDARY     84   LAYER   1   ROW     6   COL     9   RATE   -100.0000    
 BOUNDARY     85   LAYER   1   ROW     6   COL    10   RATE   -100.0000    
 BOUNDARY     86   LAYER   1   ROW     6   COL    11   RATE   -100.0000    
 BOUNDARY     87   LAYER   1   ROW     6   COL    12   RATE    -26.8954    
 BOUNDARY     88   LAYER   1   ROW     6   COL    13   RATE    -4.23659    
 BOUNDARY     89   LAYER   1   ROW     6   COL    14   RATE     0.00000    
 BOUNDARY     90   LAYER   1   ROW     6   COL    15   RATE     0.00000    
 BOUNDARY     91   LAYER   1   ROW     7   COL     1   RATE     0.00000    
 BOUNDARY     92   LAYER   1   ROW     7   COL     2   RATE    -1.03155    
 BOUNDARY     93   LAYER   1   ROW     7   COL     3   RATE    -41.6681    
 BOUNDARY     94   LAYER   1   ROW     7   COL     4   RATE   -100.0000    
 BOUNDARY     95   LAYER   1   ROW     7   COL     5   RATE   -100.0000    
 BOUNDARY     96   LAYER   1   ROW     7   COL     6   RATE   -100.0000    
 BOUNDARY     97   LAYER   1   ROW     7   COL     7   RATE   -100.0000    
 BOUNDARY     98   LAYER   1   ROW     7   COL     8   RATE   -100.0000    
 BOUNDARY     99   LAYER   1   ROW     7   COL     9   RATE   -100.0000    
 BOUNDARY    100   LAYER   1   ROW     7   COL    10   RATE   -100.0000    
 BOUNDARY    101   LAYER   1   ROW     7   COL    11   RATE   -100.0000    
 BOUNDARY    102   LAYER   1   ROW     7   COL    12   RATE    -26.7335    
 BOUNDARY    103   LAYER   1   ROW     7   COL    13   RATE    -3.50558    
 BOUNDARY    104   LAYER   1   ROW     7   COL    14   RATE     0.00000    
 BOUNDARY    105   LAYER   1   ROW     7   COL    15   RATE     0.00000    
 BOUNDARY    106   LAYER   1   ROW     8   COL     1   RATE     0.00000    
 BOUNDARY    107   LAYER   1   ROW     8   COL     2   RATE    -11.3114    
 BOUNDARY    108   LAYER   1   ROW     8   COL     3   RATE   -100.0000    
 BOUNDARY    109   LAYER   1   ROW     8   COL     4   RATE   -100.0000    
 BOUNDARY    110   LAYER   1   ROW     8   COL     5   RATE   -100.0000    
 BOUNDARY    111   LAYER   1   ROW     8   COL     6   RATE   -100.0000    
 BOUNDARY    112   LAYER   1   ROW     8   COL     7   RATE   -100.0000    
 BOUNDARY    113   LAYER   1   ROW     8   COL     8   RATE   -100.0000    
 BOUNDARY    114   LAYER   1   ROW     8   COL     9   RATE   -100.0000    
 BOUNDARY    115   LAYER   1   ROW     8   COL    10   RATE   -100.0000    
 BOUNDARY    116   LAYER   1   ROW     8   COL    11   RATE   -100.0000    
 BOUNDARY    117   LAYER   1   ROW     8   COL    12   RATE    -27.1213    
 BOUNDARY    118   LAYER   1   ROW     8   COL    13   RATE    -3.50953    
 BOUNDARY    119   LAYER   1   ROW     8   COL    14   RATE     0.00000    
 BOUNDARY    120   LAYER   1   ROW     8   COL    15   RATE     0.00000    
 BOUNDARY    121   LAYER   1   ROW     9   COL     1   RATE    -18.8922    
 BOUNDARY    122   LAYER   1   ROW     9   COL     2   RATE    -60.7678    
 BOUNDARY    123   LAYER   1   ROW     9   COL     3   RATE   -100.0000    
 BOUNDARY    124   LAYER   1   ROW     9   COL     4   RATE   -100.0000    
 BOUNDARY    125   LAYER   1   ROW     9   COL     5   RATE   -100.0000    
 BOUNDARY    126   LAYER   1   ROW     9   COL     6   RATE   -100.0000    
 BOUNDARY    127   LAYER   1   ROW     9   COL     7   RATE   -100.0000    
 BOUNDARY    128   LAYER   1   ROW     9   COL     8   RATE   -100.0000    
 BOUNDARY    129   LAYER   1   ROW     9   COL     9   RATE   -100.0000    
 BOUNDARY    130   LAYER   1   ROW     9   COL    10   RATE   -100.0000    
 BOUNDARY    131   LAYER   1   ROW     9   COL    11   RATE   -100.0000    
 BOUNDARY    132   LAYER   1   ROW     9   COL    12   RATE    -28.2193    
 BOUNDARY    133   LAYER   1   ROW     9   COL    13   RATE    -4.33163    
 BOUNDARY    134   LAYER   1   ROW     9   COL    14   RATE     0.00000    
 BOUNDARY    135   LAYER   1   ROW     9   COL    15   RATE     0.00000    
 BOUNDARY    136   LAYER   1   ROW    10   COL     1   RATE    -68.9816    
 BOUNDARY    137   LAYER   1   ROW    10   COL     2   RATE   -100.0000    
 BOUNDARY    138   LAYER   1   ROW    10   COL     3   RATE   -100.0000    
 BOUNDARY    139   LAYER   1   ROW    10   COL     4   RATE   -100.0000    
 BOUNDARY    140   LAYER   1   ROW    10   COL     5   RATE   -100.0000    
 BOUNDARY    141   LAYER   1   ROW    10   COL     6   RATE   -100.0000    
 BOUNDARY    142   LAYER   1   ROW    10   COL     7   RATE   -100.0000    
 BOUNDARY    143   LAYER   1   ROW    10   COL     8   RATE   -100.0000    
 BOUNDARY    144   LAYER   1   ROW    10   COL     9   RATE   -100.0000    
 BOUNDARY    145   LAYER   1   ROW    10   COL    10   RATE   -100.0000    
 BOUNDARY    146   LAYER   1   ROW    10   COL    11   RATE   -100.0000    
 BOUNDARY    147   LAYER   1   ROW    10   COL    12   RATE    -29.0145    
 BOUNDARY    148   LAYER   1   ROW    10   COL    13   RATE    -4.85950    
 BOUNDARY    149   LAYER   1   ROW    10   COL    14   RATE     0.00000    
 BOUNDARY    150   LAYER   1   ROW    10   COL    15   RATE     0.00000    

 HEAD WILL BE SAVED ON UNIT 1017 AT END OF TIME STEP    3, STRESS PERIOD    3
WEL   no.    2 value from time series:   0.0000     for time:  35.00     to  36.00    
WEL   no.    3 value from time series:   0.0000     for time:  35.00     to  36.00    
RIV   no.    1 value from time series:   101.00     for time:  35.00     to  36.00    
RIV   no.    2 value from time series:   101.00     for time:  35.00     to  36.00    
RIV   no.    3 value from time series:   111.50     for time:  35.00     to  36.00    
RIV   no.    4 value from time series:   111.50     for time:  35.00     to  36.00    
RIV   no.    5 value from time series:   115.10     for time:  35.00     to  36.00    
RIV   no.    6 value from time series:   115.10     for time:  35.00     to  36.00    
RIV   no.    7 value from time series:   104.00     for time:  35.00     to  36.00    
RIV   no.    8 value from time series:   104.00     for time:  35.00     to  36.00    
RIV   no.    9 value from time series:   113.50     for time:  35.00     to  36.00    
RIV   no.   10 value from time series:   113.50     for time:  35.00     to  36.00    
WEL   no.    2 value from time series:   0.0000     for time:  35.00     to  36.00    
WEL   no.    3 value from time series:   0.0000     for time:  35.00     to  36.00    
RIV   no.    1 value from time series:   101.00     for time:  35.00     to  36.00    
RIV   no.    2 value from time series:   101.00     for time:  35.00     to  36.00    
RIV   no.    3 value from time series:   111.50     for time:  35.00     to  36.00    
RIV   no.    4 value from time series:   111.50     for time:  35.00     to  36.00    
RIV   no.    5 value from time series:   115.10     for time:  35.00     to  36.00    
RIV   no.    6 value from time series:   115.10     for time:  35.00     to  36.00    
RIV   no.    7 value from time series:   104.00     for time:  35.00     to  36.00    
RIV   no.    8 value from time series:   104.00     for time:  35.00     to  36.00    
RIV   no.    9 value from time series:   113.50     for time:  35.00     to  36.00    
RIV   no.   10 value from time series:   113.50     for time:  35.00     to  36.00    

 OUTPUT CONTROL FOR STRESS PERIOD    3   TIME STEP    4
    SAVE BUDGET
    SAVE HEAD
    SAVE HEAD FOR ALL LAYERS
 UBDSV1 SAVING          STORAGE ON UNIT   1016 AT TIME STEP      4, STRESS PERIOD      3
 UBDSV1 SAVING FLOW RIGHT FACE  ON UNIT   1016 AT TIME STEP      4, STRESS PERIOD      3
 UBDSV1 SAVING FLOW FRONT FACE  ON UNIT   1016 AT TIME STEP      4, STRESS PERIOD      3
 UBDSV1 SAVING FLOW LOWER FACE  ON UNIT   1016 AT TIME STEP      4, STRESS PERIOD      3
 UBDSV4 SAVING WELLS NEAR RIVER ON UNIT   1016 AT TIME STEP      4, STRESS PERIOD      3

 WELLS NEAR RIVER   PERIOD  3   STEP  4
 BOUNDARY      1   LAYER   1   ROW     2   COL     3   RATE    -50.0000    
 BOUNDARY      2   LAYER   2   ROW     3   COL     4   RATE     0.00000      WELL_1
 BOUNDARY      3   LAYER   2   ROW     8   COL     4   RATE     0.00000      WELL_2
 UBDSV4 SAVING RIVER            ON UNIT   1016 AT TIME STEP      4, STRESS PERIOD      3

 RIVER              PERIOD  3   STEP  4
 BOUNDARY      1   LAYER   1   ROW     1   COL    15   RATE    -4863.23    
 BOUNDARY      2   LAYER   1   ROW     2   COL    15   RATE    -5968.33      RIV2
 BOUNDARY      3   LAYER   1   ROW     3   COL    15   RATE    -2179.28      RIV3
 BOUNDARY      4   LAYER   1   ROW     4   COL    15   RATE    -3635.09    
 BOUNDARY      5   LAYER   1   ROW     5   COL    15   RATE    -2280.96    
 BOUNDARY      6   LAYER   1   ROW     6   COL    15   RATE    -1638.93    
 BOUNDARY      7   LAYER   1   ROW     7   COL    15   RATE    -6132.87      RIVX
 BOUNDARY      8   LAYER   1   ROW     8   COL    15   RATE    -5961.51      RIVX
 BOUNDARY      9   LAYER   1   ROW     9   COL    15   RATE    -2134.51      RIVX
 BOUNDARY     10   LAYER   1   ROW    10   COL    15   RATE    -3020.77    

 GHB LAKES          PERIOD  3   STEP  4
 BOUNDARY      1   LAYER   1   ROW     3   COL     1   RATE    -14468.9    
 BOUNDARY      2   LAYER   1   ROW     7   COL     1   RATE    -1842.76      GHB2_UPPER
 BOUNDARY      3   LAYER   1   ROW     7   COL     1   RATE    -13235.7      GHB2_LOWER
 UBDSV4 SAVING RECHARGE         ON UNIT   1016 AT TIME STEP      4, STRESS PERIOD      3

 RECHARGE           PERIOD  3   STEP  4
 BOUNDARY      1   LAYER   1   ROW     1   COL     1   RATE     573.958    
 BOUNDARY      2   LAYER   1   ROW     1   COL     2   RATE     573.958    
 BOUNDARY      3   LAYER   1   ROW     1   COL     3   RATE     573.958    
 BOUNDARY      4   LAYER   1   ROW     1   COL     4   RATE     573.958    
 BOUNDARY      5   LAYER   1   ROW     1   COL     5   RATE     573.958    
 BOUNDARY      6   LAYER   1   ROW     1   COL     6   RATE     573.958    
 BOUNDARY      7   LAYER   1   ROW     1   COL     7   RATE     573.958    
 BOUNDARY      8   LAYER   1   ROW     1   COL     8   RATE     573.958    
 BOUNDARY      9   LAYER   1   ROW     1   COL     9   RATE     573.958    
 BOUNDARY     10   LAYER   1   ROW     1   COL    10   RATE     573.958    
 BOUNDARY     11   LAYER   1   ROW     1   COL    11   RATE     573.958    
 BOUNDARY     12   LAYER   1   ROW     1   COL    12   RATE     573.958    
 BOUNDARY     13   LAYER   1   ROW     1   COL    13   RATE     573.958    
 BOUNDARY     14   LAYER   1   ROW     1   COL    14   RATE     573.958    
 BOUNDARY     15   LAYER   1   ROW     1   COL    15   RATE     573.958    
 BOUNDARY     16   LAYER   1   ROW     2   COL     1   RATE     573.958    
 BOUNDARY     17   LAYER   1   ROW     2   COL     2   RATE     573.958    
 BOUNDARY     18   LAYER   1   ROW     2   COL     3   RATE     573.958    
 BOUNDARY     19   LAYER   1   ROW     2   COL     4   RATE     573.958    
 BOUNDARY     20   LAYER   1   ROW     2   COL     5   RATE     573.958    
 BOUNDARY     21   LAYER   1   ROW     2   COL     6   RATE     573.958    
 BOUNDARY     22   LAYER   1   ROW     2   COL     7   RATE     573.958    
 BOUNDARY     23   LAYER   1   ROW     2   COL     8   RATE     573.958    
 BOUNDARY     24   LAYER   1   ROW     2   COL     9   RATE     573.958    
 BOUNDARY     25   LAYER   1   ROW     2   COL    10   RATE     573.958    
 BOUNDARY     26   LAYER   1   ROW     2   COL    11   RATE     573.958    
 BOUNDARY     27   LAYER   1   ROW     2   COL    12   RATE     573.958    
 BOUNDARY     28   LAYER   1   ROW     2   COL    13   RATE     573.958    
 BOUNDARY     29   LAYER   1   ROW     2   COL    14   RATE     573.958    
 BOUNDARY     30   LAYER   1   ROW     2   COL    15   RATE     573.958    
 BOUNDARY     31   LAYER   1   ROW     3   COL     1   RATE     573.958    
 BOUNDARY     32   LAYER   1   ROW     3   COL     2   RATE     573.958    
 BOUNDARY     33   LAYER   1   ROW     3   COL     3   RATE     573.958    
 BOUNDARY     34   LAYER   1   ROW     3   COL     4   RATE     573.958    
 BOUNDARY     35   LAYER   1   ROW     3   COL     5   RATE     573.958    
 BOUNDARY     36   LAYER   1   ROW     3   COL     6   RATE     573.958    
 BOUNDARY     37   LAYER   1   ROW     3   COL     7   RATE     573.958    
 BOUNDARY     38   LAYER   1   ROW     3   COL     8   RATE     573.958    
 BOUNDARY     39   LAYER   1   ROW     3   COL     9   RATE     573.958    
 BOUNDARY     40   LAYER   1   ROW     3   COL    10   RATE     573.958    
 BOUNDARY     41   LAYER   1   ROW     3   COL    11   RATE     573.958    
 BOUNDARY     42   LAYER   1   ROW     3   COL    12   RATE     573.958    
 BOUNDARY     43   LAYER   1   ROW     3   COL    13   RATE     573.958    
 BOUNDARY     44   LAYER   1   ROW     3   COL    14   RATE     573.958    
 BOUNDARY     45   LAYER   1   ROW     3   COL    15   RATE     573.958    
 BOUNDARY     46   LAYER   1   ROW     4   COL     1   RATE     573.958    
 BOUNDARY     47   LAYER   1   ROW     4   COL     2   RATE     573.958    
 BOUNDARY     48   LAYER   1   ROW     4   COL     3   RATE     573.958    
 BOUNDARY     49   LAYER   1   ROW     4   COL     4   RATE     573.958    
 BOUNDARY     50   LAYER   1   ROW     4   COL     5   RATE     573.958    
 BOUNDARY     51   LAYER   1   ROW     4   COL     6   RATE     573.958    
 BOUNDARY     52   LAYER   1   ROW     4   COL     7   RATE     573.958    
 BOUNDARY     53   LAYER   1   ROW     4   COL     8   RATE     573.958    
 BOUNDARY     54   LAYER   1   ROW     4   COL     9   RATE     573.958    
 BOUNDARY     55   LAYER   1   ROW     4   COL    10   RATE     573.958    
 BOUNDARY     56   LAYER   1   ROW     4   COL    11   RATE     573.958    
 BOUNDARY     57   LAYER   1   ROW     4   COL    12   RATE     573.958    
 BOUNDARY     58   LAYER   1   ROW     4   COL    13   RATE     573.958    
 BOUNDARY     59   LAYER   1   ROW     4   COL    14   RATE     573.958    
 BOUNDARY     60   LAYER   1   ROW     4   COL    15   RATE     573.958    
 BOUNDARY     61   LAYER   1   ROW     5   COL     1   RATE     573.958    
 BOUNDARY     62   LAYER   1   ROW     5   COL     2   RATE     573.958    
 BOUNDARY     63   LAYER   1   ROW     5   COL     3   RATE     573.958    
 BOUNDARY     64   LAYER   1   ROW     5   COL     4   RATE     573.958    
 BOUNDARY     65   LAYER   1   ROW     5   COL     5   RATE     573.958    
 BOUNDARY     66   LAYER   1   ROW     5   COL     6   RATE     573.958    
 BOUNDARY     67   LAYER   1   ROW     5   COL     7   RATE     573.958    
 BOUNDARY     68   LAYER   1   ROW     5   COL     8   RATE     573.958    
 BOUNDARY     69   LAYER   1   ROW     5   COL     9   RATE     573.958    
 BOUNDARY     70   LAYER   1   ROW     5   COL    10   RATE     573.958    
 BOUNDARY     71   LAYER   1   ROW     5   COL    11   RATE     573.958    
 BOUNDARY     72   LAYER   1   ROW     5   COL    12   RATE     573.958    
 BOUNDARY     73   LAYER   1   ROW     5   COL    13   RATE     573.958    
 BOUNDARY     74   LAYER   1   ROW     5   COL    14   RATE     573.958    
 BOUNDARY     75   LAYER   1   ROW     5   COL    15   RATE     573.958    
 BOUNDARY     76   LAYER   1   ROW     6   COL     1   RATE     573.958    
 BOUNDARY     77   LAYER   1   ROW     6   COL     2   RATE     573.958    
 BOUNDARY     78   LAYER   1   ROW     6   COL     3   RATE     573.958    
 BOUNDARY     79   LAYER   1   ROW     6   COL     4   RATE     573.958    
 BOUNDARY     80   LAYER   1   ROW     6   COL     5   RATE     573.958    
 BOUNDARY     81   LAYER   1   ROW     6   COL     6   RATE     573.958    
 BOUNDARY     82   LAYER   1   ROW     6   COL     7   RATE     573.958    
 BOUNDARY     83   LAYER   1   ROW     6   COL     8   RATE     573.958    
 BOUNDARY     84   LAYER   1   ROW     6   COL     9   RATE     573.958    
 BOUNDARY     85   LAYER   1   ROW     6   COL    10   RATE     573.958    
 BOUNDARY     86   LAYER   1   ROW     6   COL    11   RATE     573.958    
 BOUNDARY     87   LAYER   1   ROW     6   COL    12   RATE     573.958    
 BOUNDARY     88   LAYER   1   ROW     6   COL    13   RATE     573.958    
 BOUNDARY     89   LAYER   1   ROW     6   COL    14   RATE     573.958    
 BOUNDARY     90   LAYER   1   ROW     6   COL    15   RATE     573.958    
 BOUNDARY     91   LAYER   1   ROW     7   COL     1   RATE     573.958    
 BOUNDARY     92   LAYER   1   ROW     7   COL     2   RATE     573.958    
 BOUNDARY     93   LAYER   1   ROW     7   COL     3   RATE     573.958    
 BOUNDARY     94   LAYER   1   ROW     7   COL     4   RATE     573.958    
 BOUNDARY     95   LAYER   1   ROW     7   COL     5   RATE     573.958    
 BOUNDARY     96   LAYER   1   ROW     7   COL     6   RATE     573.958    
 BOUNDARY     97   LAYER   1   ROW     7   COL     7   RATE     573.958    
 BOUNDARY     98   LAYER   1   ROW     7   COL     8   RATE     573.958    
 BOUNDARY     99   LAYER   1   ROW     7   COL     9   RATE     573.958    
 BOUNDARY    100   LAYER   1   ROW     7   COL    10   RATE     573.958    
 BOUNDARY    101   LAYER   1   ROW     7   COL    11   RATE     573.958    
 BOUNDARY    102   LAYER   1   ROW     7   COL    12   RATE     573.958    
 BOUNDARY    103   LAYER   1   ROW     7   COL    13   RATE     573.958    
 BOUNDARY    104   LAYER   1   ROW     7   COL    14   RATE     573.958    
 BOUNDARY    105   LAYER   1   ROW     7   COL    15   RATE     573.958    
 BOUNDARY    106   LAYER   1   ROW     8   COL     1   RATE     573.958    
 BOUNDARY    107   LAYER   1   ROW     8   COL     2   RATE     573.958    
 BOUNDARY    108   LAYER   1   ROW     8   COL     3   RATE     573.958    
 BOUNDARY    109   LAYER   1   ROW     8   COL     4   RATE     573.958    
 BOUNDARY    110   LAYER   1   ROW     8   COL     5   RATE     573.958    
 BOUNDARY    111   LAYER   1   ROW     8   COL     6   RATE     573.958    
 BOUNDARY    112   LAYER   1   ROW     8   COL     7   RATE     573.958    
 BOUNDARY    113   LAYER   1   ROW     8   COL     8   RATE     573.958    
 BOUNDARY    114   LAYER   1   ROW     8   COL     9   RATE     573.958    
 BOUNDARY    115   LAYER   1   ROW     8   COL    10   RATE     573.958    
 BOUNDARY    116   LAYER   1   ROW     8   COL    11   RATE     573.958    
 BOUNDARY    117   LAYER   1   ROW     8   COL    12   RATE     573.958    
 BOUNDARY    118   LAYER   1   ROW     8   COL    13   RATE     573.958    
 BOUNDARY    119   LAYER   1   ROW     8   COL    14   RATE     573.958    
 BOUNDARY    120   LAYER   1   ROW     8   COL    15   RATE     573.958    
 BOUNDARY    121   LAYER   1   ROW     9   COL     1   RATE     573.958    
 BOUNDARY    122   LAYER   1   ROW     9   COL     2   RATE     573.958    
 BOUNDARY    123   LAYER   1   ROW     9   COL     3   RATE     573.958    
 BOUNDARY    124   LAYER   1   ROW     9   COL     4   RATE     573.958    
 BOUNDARY    125   LAYER   1   ROW     9   COL     5   RATE     573.958    
 BOUNDARY    126   LAYER   1   ROW     9   COL     6   RATE     573.958    
 BOUNDARY    127   LAYER   1   ROW     9   COL     7   RATE     573.958    
 BOUNDARY    128   LAYER   1   ROW     9   COL     8   RATE     573.958    
 BOUNDARY    129   LAYER   1   ROW     9   COL     9   RATE     573.958    
 BOUNDARY    130   LAYER   1   ROW     9   COL    10   RATE     573.958    
 BOUNDARY    131   LAYER   1   ROW     9   COL    11   RATE     573.958    
 BOUNDARY    132   LAYER   1   ROW     9   COL    12   RATE     573.958    
 BOUNDARY    133   LAYER   1   ROW     9   COL    13   RATE     573.958    
 BOUNDARY    134   LAYER   1   ROW     9   COL    14   RATE     573.958    
 BOUNDARY    135   LAYER   1   ROW     9   COL    15   RATE     573.958    
 BOUNDARY    136   LAYER   1   ROW    10   COL     1   RATE     573.958    
 BOUNDARY    137   LAYER   1   ROW    10   COL     2   RATE     573.958    
 BOUNDARY    138   LAYER   1   ROW    10   COL     3   RATE     573.958    
 BOUNDARY    139   LAYER   1   ROW    10   COL     4   RATE     573.958    
 BOUNDARY    140   LAYER   1   ROW    10   COL     5   RATE     573.958    
 BOUNDARY    141   LAYER   1   ROW    10   COL     6   RATE     573.958    
 BOUNDARY    142   LAYER   1   ROW    10   COL     7   RATE     573.958    
 BOUNDARY    143   LAYER   1   ROW    10   COL     8   RATE     573.958    
 BOUNDARY    144   LAYER   1   ROW    10   COL     9   RATE     573.958    
 BOUNDARY    145   LAYER   1   ROW    10   COL    10   RATE     573.958    
 BOUNDARY    146   LAYER   1   ROW    10   COL    11   RATE     573.958    
 BOUNDARY    147   LAYER   1   ROW    10   COL    12   RATE     573.958    
 BOUNDARY    148   LAYER   1   ROW    10   COL    13   RATE     573.958    
 BOUNDARY    149   LAYER   1   ROW    10   COL    14   RATE     573.958    
 BOUNDARY    150   LAYER   1   ROW    10   COL    15   RATE     573.958    
 UBDSV4 SAVING ET SEGS          ON UNIT   1016 AT TIME STEP      4, STRESS PERIOD      3

 ET SEGS            PERIOD  3   STEP  4
 BOUNDARY      1   LAYER   1   ROW     1   COL     1   RATE    -2.16815    
 BOUNDARY      2   LAYER   1   ROW     1   COL     2   RATE    -9.02111    
 BOUNDARY      3   LAYER   1   ROW     1   COL     3   RATE    -49.4323    
 BOUNDARY      4   LAYER   1   ROW     1   COL     4   RATE   -100.0000    
 BOUNDARY      5   LAYER   1   ROW     1   COL     5   RATE   -100.0000    
 BOUNDARY      6   LAYER   1   ROW     1   COL     6   RATE   -100.0000    
 BOUNDARY      7   LAYER   1   ROW     1   COL     7   RATE   -100.0000    
 BOUNDARY      8   LAYER   1   ROW     1   COL     8   RATE   -100.0000    
 BOUNDARY      9   LAYER   1   ROW     1   COL     9   RATE   -100.0000    
 BOUNDARY     10   LAYER   1   ROW     1   COL    10   RATE   -100.0000    
 BOUNDARY     11   LAYER   1   ROW     1   COL    11   RATE   -100.0000    
 BOUNDARY     12   LAYER   1   ROW     1   COL    12   RATE    -16.8540    
 BOUNDARY     13   LAYER   1   ROW     1   COL    13   RATE     0.00000    
 BOUNDARY     14   LAYER   1   ROW     1   COL    14   RATE     0.00000    
 BOUNDARY     15   LAYER   1   ROW     1   COL    15   RATE     0.00000    
 BOUNDARY     16   LAYER   1   ROW     2   COL     1   RATE     0.00000    
 BOUNDARY     17   LAYER   1   ROW     2   COL     2   RATE    -4.50470    
 BOUNDARY     18   LAYER   1   ROW     2   COL     3   RATE    -28.2868    
 BOUNDARY     19   LAYER   1   ROW     2   COL     4   RATE   -100.0000    
 BOUNDARY     20   LAYER   1   ROW     2   COL     5   RATE   -100.0000    
 BOUNDARY     21   LAYER   1   ROW     2   COL     6   RATE   -100.0000    
 BOUNDARY     22   LAYER   1   ROW     2   COL     7   RATE   -100.0000    
 BOUNDARY     23   LAYER   1   ROW     2   COL     8   RATE   -100.0000    
 BOUNDARY     24   LAYER   1   ROW     2   COL     9   RATE   -100.0000    
 BOUNDARY     25   LAYER   1   ROW     2   COL    10   RATE   -100.0000    
 BOUNDARY     26   LAYER   1   ROW     2   COL    11   RATE   -100.0000    
 BOUNDARY     27   LAYER   1   ROW     2   COL    12   RATE    -18.5935    
 BOUNDARY     28   LAYER   1   ROW     2   COL    13   RATE   -0.126828    
 BOUNDARY     29   LAYER   1   ROW     2   COL    14   RATE     0.00000    
 BOUNDARY     30   LAYER   1   ROW     2   COL    15   RATE     0.00000    
 BOUNDARY     31   LAYER   1   ROW     3   COL     1   RATE     0.00000    
 BOUNDARY     32   LAYER   1   ROW     3   COL     2   RATE     0.00000    
 BOUNDARY     33   LAYER   1   ROW     3   COL     3   RATE    -22.3426    
 BOUNDARY     34   LAYER   1   ROW     3   COL     4   RATE   -100.0000    
 BOUNDARY     35   LAYER   1   ROW     3   COL     5   RATE   -100.0000    
 BOUNDARY     36   LAYER   1   ROW     3   COL     6   RATE   -100.0000    
 BOUNDARY     37   LAYER   1   ROW     3   COL     7   RATE   -100.0000    
 BOUNDARY     38   LAYER   1   ROW     3   COL     8   RATE   -100.0000    
 BOUNDARY     39   LAYER   1   ROW     3   COL     9   RATE   -100.0000    
 BOUNDARY     40   LAYER   1   ROW     3   COL    10   RATE   -100.0000    
 BOUNDARY     41   LAYER   1   ROW     3   COL    11   RATE   -100.0000    
 BOUNDARY     42   LAYER   1   ROW     3   COL    12   RATE    -21.5275    
 BOUNDARY     43   LAYER   1   ROW     3   COL    13   RATE    -1.91395    
 BOUNDARY     44   LAYER   1   ROW     3   COL    14   RATE     0.00000    
 BOUNDARY     45   LAYER   1   ROW     3   COL    15   RATE     0.00000    
 BOUNDARY     46   LAYER   1   ROW     4   COL     1   RATE     0.00000    
 BOUNDARY     47   LAYER   1   ROW     4   COL     2   RATE    -2.99113    
 BOUNDARY     48   LAYER   1   ROW     4   COL     3   RATE    -26.2101    
 BOUNDARY     49   LAYER   1   ROW     4   COL     4   RATE   -100.0000    
 BOUNDARY     50   LAYER   1   ROW     4   COL     5   RATE   -100.0000    
 BOUNDARY     51   LAYER   1   ROW     4   COL     6   RATE   -100.0000    
 BOUNDARY     52   LAYER   1   ROW     4   COL     7   RATE   -100.0000    
 BOUNDARY     53   LAYER   1   ROW     4   COL     8   RATE   -100.0000    
 BOUNDARY     54   LAYER   1   ROW     4   COL     9   RATE   -100.0000    
 BOUNDARY     55   LAYER   1   ROW     4   COL    10   RATE   -100.0000    
 BOUNDARY     56   LAYER   1   ROW     4   COL    11   RATE   -100.0000    
 BOUNDARY     57   LAYER   1   ROW     4   COL    12   RATE    -24.3274    
 BOUNDARY     58   LAYER   1   ROW     4   COL    13   RATE    -3.37629    
 BOUNDARY     59   LAYER   1   ROW     4   COL    14   RATE     0.00000    
 BOUNDARY     60   LAYER   1   ROW     4   COL    15   RATE     0.00000    
 BOUNDARY     61   LAYER   1   ROW     5   COL     1   RATE     0.00000    
 BOUNDARY     62   LAYER   1   ROW     5   COL     2   RATE    -5.96502    
 BOUNDARY     63   LAYER   1   ROW     5   COL     3   RATE    -31.0330    
 BOUNDARY     64   LAYER   1   ROW     5   COL     4   RATE   -100.0000    
 BOUNDARY     65   LAYER   1   ROW     5   COL     5   RATE   -100.0000    
 BOUNDARY     66   LAYER   1   ROW     5   COL     6   RATE   -100.0000    
 BOUNDARY     67   LAYER   1   ROW     5   COL     7   RATE   -100.0000    
 BOUNDARY     68   LAYER   1   ROW     5   COL     8   RATE   -100.0000    
 BOUNDARY     69   LAYER   1   ROW     5   COL     9   RATE   -100.0000    
 BOUNDARY     70   LAYER   1   ROW     5   COL    10   RATE   -100.0000    
 BOUNDARY     71   LAYER   1   ROW     5   COL    11   RATE   -100.0000    
 BOUNDARY     72   LAYER   1   ROW     5   COL    12   RATE    -26.2655    
 BOUNDARY     73   LAYER   1   ROW     5   COL    13   RATE    -4.28375    
 BOUNDARY     74   LAYER   1   ROW     5   COL    14   RATE     0.00000    
 BOUNDARY     75   LAYER   1   ROW     5   COL    15   RATE     0.00000    
 BOUNDARY     76   LAYER   1   ROW     6   COL     1   RATE     0.00000    
 BOUNDARY     77   LAYER   1   ROW     6   COL     2   RATE    -4.53528    
 BOUNDARY     78   LAYER   1   ROW     6   COL     3   RATE    -34.8903    
 BOUNDARY     79   LAYER   1   ROW     6   COL     4   RATE   -100.0000    
 BOUNDARY     80   LAYER   1   ROW     6   COL     5   RATE   -100.0000    
 BOUNDARY     81   LAYER   1   ROW     6   COL     6   RATE   -100.0000    
 BOUNDARY     82   LAYER   1   ROW     6   COL     7   RATE   -100.0000    
 BOUNDARY     83   LAYER   1   ROW     6   COL     8   RATE   -100.0000    
 BOUNDARY     84   LAYER   1   ROW     6   COL     9   RATE   -100.0000    
 BOUNDARY     85   LAYER   1   ROW     6   COL    10   RATE   -100.0000    
 BOUNDARY     86   LAYER   1   ROW     6   COL    11   RATE   -100.0000    
 BOUNDARY     87   LAYER   1   ROW     6   COL    12   RATE    -26.9148    
 BOUNDARY     88   LAYER   1   ROW     6   COL    13   RATE    -4.24248    
 BOUNDARY     89   LAYER   1   ROW     6   COL    14   RATE     0.00000    
 BOUNDARY     90   LAYER   1   ROW     6   COL    15   RATE     0.00000    
 BOUNDARY     91   LAYER   1   ROW     7   COL     1   RATE     0.00000    
 BOUNDARY     92   LAYER   1   ROW     7   COL     2   RATE    -1.03681    
 BOUNDARY     93   LAYER   1   ROW     7   COL     3   RATE    -41.7663    
 BOUNDARY     94   LAYER   1   ROW     7   COL     4   RATE   -100.0000    
 BOUNDARY     95   LAYER   1   ROW     7   COL     5   RATE   -100.0000    
 BOUNDARY     96   LAYER   1   ROW     7   COL     6   RATE   -100.0000    
 BOUNDARY     97   LAYER   1   ROW     7   COL     7   RATE   -100.0000    
 BOUNDARY     98   LAYER   1   ROW     7   COL     8   RATE   -100.0000    
 BOUNDARY     99   LAYER   1   ROW     7   COL     9   RATE   -100.0000    
 BOUNDARY    100   LAYER   1   ROW     7   COL    10   RATE   -100.0000    
 BOUNDARY    101   LAYER   1   ROW     7   COL    11   RATE   -100.0000    
 BOUNDARY    102   LAYER   1   ROW     7   COL    12   RATE    -26.7532    
 BOUNDARY    103   LAYER   1   ROW     7   COL    13   RATE    -3.51176    
 BOUNDARY    104   LAYER   1   ROW     7   COL    14   RATE     0.00000    
 BOUNDARY    105   LAYER   1   ROW     7   COL    15   RATE     0.00000    
 BOUNDARY    106   LAYER   1   ROW     8   COL     1   RATE     0.00000    
 BOUNDARY    107   LAYER   1   ROW     8   COL     2   RATE    -11.3301    
 BOUNDARY    108   LAYER   1   ROW     8   COL     3   RATE   -100.0000    
 BOUNDARY    109   LAYER   1   ROW     8   COL     4   RATE   -100.0000    
 BOUNDARY    110   LAYER   1   ROW     8   COL     5   RATE   -100.0000    
 BOUNDARY    111   LAYER   1   ROW     8   COL     6   RATE   -100.0000    
 BOUNDARY    112   LAYER   1   ROW     8   COL     7   RATE   -100.0000    
 BOUNDARY    113   LAYER   1   ROW     8   COL     8   RATE   -100.0000    
 BOUNDARY    114   LAYER   1   ROW     8   COL     9   RATE   -100.0000    
 BOUNDARY    115   LAYER   1   ROW     8   COL    10   RATE   -100.0000    
 BOUNDARY    116   LAYER   1   ROW     8   COL    11   RATE   -100.0000    
 BOUNDARY    117   LAYER   1   ROW     8   COL    12   RATE    -27.1413    
 BOUNDARY    118   LAYER   1   ROW     8   COL    13   RATE    -3.51609    
 BOUNDARY    119   LAYER   1   ROW     8   COL    14   RATE     0.00000    
 BOUNDARY    120   LAYER   1   ROW     8   COL    15   RATE     0.00000    
 BOUNDARY    121   LAYER   1   ROW     9   COL     1   RATE    -18.9110    
 BOUNDARY    122   LAYER   1   ROW     9   COL     2   RATE    -60.8668    
 BOUNDARY    123   LAYER   1   ROW     9   COL     3   RATE   -100.0000    
 BOUNDARY    124   LAYER   1   ROW     9   COL     4   RATE   -100.0000    
 BOUNDARY    125   LAYER   1   ROW     9   COL     5   RATE   -100.0000    
 BOUNDARY    126   LAYER   1   ROW     9   COL     6   RATE   -100.0000    
 BOUNDARY    127   LAYER   1   ROW     9   COL     7   RATE   -100.0000    
 BOUNDARY    128   LAYER   1   ROW     9   COL     8   RATE   -100.0000    
 BOUNDARY    129   LAYER   1   ROW     9   COL     9   RATE   -100.0000    
 BOUNDARY    130   LAYER   1   ROW     9   COL    10   RATE   -100.0000    
 BOUNDARY    131   LAYER   1   ROW     9   COL    11   RATE   -100.0000    
 BOUNDARY    132   LAYER   1   ROW     9   COL    12   RATE    -28.2396    
 BOUNDARY    133   LAYER   1   ROW     9   COL    13   RATE    -4.33884    
 BOUNDARY    134   LAYER   1   ROW     9   COL    14   RATE     0.00000    
 BOUNDARY    135   LAYER   1   ROW     9   COL    15   RATE     0.00000    
 BOUNDARY    136   LAYER   1   ROW    10   COL     1   RATE    -69.0806    
 BOUNDARY    137   LAYER   1   ROW    10   COL     2   RATE   -100.0000    
 BOUNDARY    138   LAYER   1   ROW    10   COL     3   RATE   -100.0000    
 BOUNDARY    139   LAYER   1   ROW    10   COL     4   RATE   -100.0000    
 BOUNDARY    140   LAYER   1   ROW    10   COL     5   RATE   -100.0000    
 BOUNDARY    141   LAYER   1   ROW    10   COL     6   RATE   -100.0000    
 BOUNDARY    142   LAYER   1   ROW    10   COL     7   RATE   -100.0000    
 BOUNDARY    143   LAYER   1   ROW    10   COL     8   RATE   -100.0000    
 BOUNDARY    144   LAYER   1   ROW    10   COL     9   RATE   -100.0000    
 BOUNDARY    145   LAYER   1   ROW    10   COL    10   RATE   -100.0000    
 BOUNDARY    146   LAYER   1   ROW    10   COL    11   RATE   -100.0000    
 BOUNDARY    147   LAYER   1   ROW    10   COL    12   RATE    -29.0350    
 BOUNDARY    148   LAYER   1   ROW    10   COL    13   RATE    -4.86696    
 BOUNDARY    149   LAYER   1   ROW    10   COL    14   RATE     0.00000    
 BOUNDARY    150   LAYER   1   ROW    10   COL    15   RATE     0.00000    

 HEAD WILL BE SAVED ON UNIT 1017 AT END OF TIME STEP    4, STRESS PERIOD    3
WEL   no.    2 value from time series:   0.0000     for time:  36.00     to  37.00    
WEL   no.    3 value from time series:   0.0000     for time:  36.00     to  37.00    
RIV   no.    1 value from time series:   101.00     for time:  36.00     to  37.00    
RIV   no.    2 value from time series:   101.00     for time:  36.00     to  37.00    
RIV   no.    3 value from time series:   111.50     for time:  36.00     to  37.00    
RIV   no.    4 value from time series:   111.50     for time:  36.00     to  37.00    
RIV   no.    5 value from time series:   115.10     for time:  36.00     to  37.00    
RIV   no.    6 value from time series:   115.10     for time:  36.00     to  37.00    
RIV   no.    7 value from time series:   104.00     for time:  36.00     to  37.00    
RIV   no.    8 value from time series:   104.00     for time:  36.00     to  37.00    
RIV   no.    9 value from time series:   113.50     for time:  36.00     to  37.00    
RIV   no.   10 value from time series:   113.50     for time:  36.00     to  37.00    
WEL   no.    2 value from time series:   0.0000     for time:  36.00     to  37.00    
WEL   no.    3 value from time series:   0.0000     for time:  36.00     to  37.00    
RIV   no.    1 value from time series:   101.00     for time:  36.00     to  37.00    
RIV   no.    2 value from time series:   101.00     for time:  36.00     to  37.00    
RIV   no.    3 value from time series:   111.50     for time:  36.00     to  37.00    
RIV   no.    4 value from time series:   111.50     for time:  36.00     to  37.00    
RIV   no.    5 value from time series:   115.10     for time:  36.00     to  37.00    
RIV   no.    6 value from time series:   115.10     for time:  36.00     to  37.00    
RIV   no.    7 value from time series:   104.00     for time:  36.00     to  37.00    
RIV   no.    8 value from time series:   104.00     for time:  36.00     to  37.00    
RIV   no.    9 value from time series:   113.50     for time:  36.00     to  37.00    
RIV   no.   10 value from time series:   113.50     for time:  36.00     to  37.00    

 OUTPUT CONTROL FOR STRESS PERIOD    3   TIME STEP    5
    SAVE BUDGET
    SAVE HEAD
    SAVE HEAD FOR ALL LAYERS
 UBDSV1 SAVING          STORAGE ON UNIT   1016 AT TIME STEP      5, STRESS PERIOD      3
 UBDSV1 SAVING FLOW RIGHT FACE  ON UNIT   1016 AT TIME STEP      5, STRESS PERIOD      3
 UBDSV1 SAVING FLOW FRONT FACE  ON UNIT   1016 AT TIME STEP      5, STRESS PERIOD      3
 UBDSV1 SAVING FLOW LOWER FACE  ON UNIT   1016 AT TIME STEP      5, STRESS PERIOD      3
 UBDSV4 SAVING WELLS NEAR RIVER ON UNIT   1016 AT TIME STEP      5, STRESS PERIOD      3

 WELLS NEAR RIVER   PERIOD  3   STEP  5
 BOUNDARY      1   LAYER   1   ROW     2   COL     3   RATE    -50.0000    
 BOUNDARY      2   LAYER   2   ROW     3   COL     4   RATE     0.00000      WELL_1
 BOUNDARY      3   LAYER   2   ROW     8   COL     4   RATE     0.00000      WELL_2
 UBDSV4 SAVING RIVER            ON UNIT   1016 AT TIME STEP      5, STRESS PERIOD      3

 RIVER              PERIOD  3   STEP  5
 BOUNDARY      1   LAYER   1   ROW     1   COL    15   RATE    -4857.79    
 BOUNDARY      2   LAYER   1   ROW     2   COL    15   RATE    -5963.55      RIV2
 BOUNDARY      3   LAYER   1   ROW     3   COL    15   RATE    -2177.78      RIV3
 BOUNDARY      4   LAYER   1   ROW     4   COL    15   RATE    -3633.74    
 BOUNDARY      5   LAYER   1   ROW     5   COL    15   RATE    -2279.36    
 BOUNDARY      6   LAYER   1   ROW     6   COL    15   RATE    -1636.91    
 BOUNDARY      7   LAYER   1   ROW     7   COL    15   RATE    -6129.81      RIVX
 BOUNDARY      8   LAYER   1   ROW     8   COL    15   RATE    -5959.26      RIVX
 BOUNDARY      9   LAYER   1   ROW     9   COL    15   RATE    -2134.14      RIVX
 BOUNDARY     10   LAYER   1   ROW    10   COL    15   RATE    -3021.11    

 GHB LAKES          PERIOD  3   STEP  5
 BOUNDARY      1   LAYER   1   ROW     3   COL     1   RATE    -14471.1    
 BOUNDARY      2   LAYER   1   ROW     7   COL     1   RATE    -1843.80      GHB2_UPPER
 BOUNDARY      3   LAYER   1   ROW     7   COL     1   RATE    -13236.0      GHB2_LOWER
 UBDSV4 SAVING RECHARGE         ON UNIT   1016 AT TIME STEP      5, STRESS PERIOD      3

 RECHARGE           PERIOD  3   STEP  5
 BOUNDARY      1   LAYER   1   ROW     1   COL     1   RATE     576.042    
 BOUNDARY      2   LAYER   1   ROW     1   COL     2   RATE     576.042    
 BOUNDARY      3   LAYER   1   ROW     1   COL     3   RATE     576.042    
 BOUNDARY      4   LAYER   1   ROW     1   COL     4   RATE     576.042    
 BOUNDARY      5   LAYER   1   ROW     1   COL     5   RATE     576.042    
 BOUNDARY      6   LAYER   1   ROW     1   COL     6   RATE     576.042    
 BOUNDARY      7   LAYER   1   ROW     1   COL     7   RATE     576.042    
 BOUNDARY      8   LAYER   1   ROW     1   COL     8   RATE     576.042    
 BOUNDARY      9   LAYER   1   ROW     1   COL     9   RATE     576.042    
 BOUNDARY     10   LAYER   1   ROW     1   COL    10   RATE     576.042    
 BOUNDARY     11   LAYER   1   ROW     1   COL    11   RATE     576.042    
 BOUNDARY     12   LAYER   1   ROW     1   COL    12   RATE     576.042    
 BOUNDARY     13   LAYER   1   ROW     1   COL    13   RATE     576.042    
 BOUNDARY     14   LAYER   1   ROW     1   COL    14   RATE     576.042    
 BOUNDARY     15   LAYER   1   ROW     1   COL    15   RATE     576.042    
 BOUNDARY     16   LAYER   1   ROW     2   COL     1   RATE     576.042    
 BOUNDARY     17   LAYER   1   ROW     2   COL     2   RATE     576.042    
 BOUNDARY     18   LAYER   1   ROW     2   COL     3   RATE     576.042    
 BOUNDARY     19   LAYER   1   ROW     2   COL     4   RATE     576.042    
 BOUNDARY     20   LAYER   1   ROW     2   COL     5   RATE     576.042    
 BOUNDARY     21   LAYER   1   ROW     2   COL     6   RATE     576.042    
 BOUNDARY     22   LAYER   1   ROW     2   COL     7   RATE     576.042    
 BOUNDARY     23   LAYER   1   ROW     2   COL     8   RATE     576.042    
 BOUNDARY     24   LAYER   1   ROW     2   COL     9   RATE     576.042    
 BOUNDARY     25   LAYER   1   ROW     2   COL    10   RATE     576.042    
 BOUNDARY     26   LAYER   1   ROW     2   COL    11   RATE     576.042    
 BOUNDARY     27   LAYER   1   ROW     2   COL    12   RATE     576.042    
 BOUNDARY     28   LAYER   1   ROW     2   COL    13   RATE     576.042    
 BOUNDARY     29   LAYER   1   ROW     2   COL    14   RATE     576.042    
 BOUNDARY     30   LAYER   1   ROW     2   COL    15   RATE     576.042    
 BOUNDARY     31   LAYER   1   ROW     3   COL     1   RATE     576.042    
 BOUNDARY     32   LAYER   1   ROW     3   COL     2   RATE     576.042    
 BOUNDARY     33   LAYER   1   ROW     3   COL     3   RATE     576.042    
 BOUNDARY     34   LAYER   1   ROW     3   COL     4   RATE     576.042    
 BOUNDARY     35   LAYER   1   ROW     3   COL     5   RATE     576.042    
 BOUNDARY     36   LAYER   1   ROW     3   COL     6   RATE     576.042    
 BOUNDARY     37   LAYER   1   ROW     3   COL     7   RATE     576.042    
 BOUNDARY     38   LAYER   1   ROW     3   COL     8   RATE     576.042    
 BOUNDARY     39   LAYER   1   ROW     3   COL     9   RATE     576.042    
 BOUNDARY     40   LAYER   1   ROW     3   COL    10   RATE     576.042    
 BOUNDARY     41   LAYER   1   ROW     3   COL    11   RATE     576.042    
 BOUNDARY     42   LAYER   1   ROW     3   COL    12   RATE     576.042    
 BOUNDARY     43   LAYER   1   ROW     3   COL    13   RATE     576.042    
 BOUNDARY     44   LAYER   1   ROW     3   COL    14   RATE     576.042    
 BOUNDARY     45   LAYER   1   ROW     3   COL    15   RATE     576.042    
 BOUNDARY     46   LAYER   1   ROW     4   COL     1   RATE     576.042    
 BOUNDARY     47   LAYER   1   ROW     4   COL     2   RATE     576.042    
 BOUNDARY     48   LAYER   1   ROW     4   COL     3   RATE     576.042    
 BOUNDARY     49   LAYER   1   ROW     4   COL     4   RATE     576.042    
 BOUNDARY     50   LAYER   1   ROW     4   COL     5   RATE     576.042    
 BOUNDARY     51   LAYER   1   ROW     4   COL     6   RATE     576.042    
 BOUNDARY     52   LAYER   1   ROW     4   COL     7   RATE     576.042    
 BOUNDARY     53   LAYER   1   ROW     4   COL     8   RATE     576.042    
 BOUNDARY     54   LAYER   1   ROW     4   COL     9   RATE     576.042    
 BOUNDARY     55   LAYER   1   ROW     4   COL    10   RATE     576.042    
 BOUNDARY     56   LAYER   1   ROW     4   COL    11   RATE     576.042    
 BOUNDARY     57   LAYER   1   ROW     4   COL    12   RATE     576.042    
 BOUNDARY     58   LAYER   1   ROW     4   COL    13   RATE     576.042    
 BOUNDARY     59   LAYER   1   ROW     4   COL    14   RATE     576.042    
 BOUNDARY     60   LAYER   1   ROW     4   COL    15   RATE     576.042    
 BOUNDARY     61   LAYER   1   ROW     5   COL     1   RATE     576.042    
 BOUNDARY     62   LAYER   1   ROW     5   COL     2   RATE     576.042    
 BOUNDARY     63   LAYER   1   ROW     5   COL     3   RATE     576.042    
 BOUNDARY     64   LAYER   1   ROW     5   COL     4   RATE     576.042    
 BOUNDARY     65   LAYER   1   ROW     5   COL     5   RATE     576.042    
 BOUNDARY     66   LAYER   1   ROW     5   COL     6   RATE     576.042    
 BOUNDARY     67   LAYER   1   ROW     5   COL     7   RATE     576.042    
 BOUNDARY     68   LAYER   1   ROW     5   COL     8   RATE     576.042    
 BOUNDARY     69   LAYER   1   ROW     5   COL     9   RATE     576.042    
 BOUNDARY     70   LAYER   1   ROW     5   COL    10   RATE     576.042    
 BOUNDARY     71   LAYER   1   ROW     5   COL    11   RATE     576.042    
 BOUNDARY     72   LAYER   1   ROW     5   COL    12   RATE     576.042    
 BOUNDARY     73   LAYER   1   ROW     5   COL    13   RATE     576.042    
 BOUNDARY     74   LAYER   1   ROW     5   COL    14   RATE     576.042    
 BOUNDARY     75   LAYER   1   ROW     5   COL    15   RATE     576.042    
 BOUNDARY     76   LAYER   1   ROW     6   COL     1   RATE     576.042    
 BOUNDARY     77   LAYER   1   ROW     6   COL     2   RATE     576.042    
 BOUNDARY     78   LAYER   1   ROW     6   COL     3   RATE     576.042    
 BOUNDARY     79   LAYER   1   ROW     6   COL     4   RATE     576.042    
 BOUNDARY     80   LAYER   1   ROW     6   COL     5   RATE     576.042    
 BOUNDARY     81   LAYER   1   ROW     6   COL     6   RATE     576.042    
 BOUNDARY     82   LAYER   1   ROW     6   COL     7   RATE     576.042    
 BOUNDARY     83   LAYER   1   ROW     6   COL     8   RATE     576.042    
 BOUNDARY     84   LAYER   1   ROW     6   COL     9   RATE     576.042    
 BOUNDARY     85   LAYER   1   ROW     6   COL    10   RATE     576.042    
 BOUNDARY     86   LAYER   1   ROW     6   COL    11   RATE     576.042    
 BOUNDARY     87   LAYER   1   ROW     6   COL    12   RATE     576.042    
 BOUNDARY     88   LAYER   1   ROW     6   COL    13   RATE     576.042    
 BOUNDARY     89   LAYER   1   ROW     6   COL    14   RATE     576.042    
 BOUNDARY     90   LAYER   1   ROW     6   COL    15   RATE     576.042    
 BOUNDARY     91   LAYER   1   ROW     7   COL     1   RATE     576.042    
 BOUNDARY     92   LAYER   1   ROW     7   COL     2   RATE     576.042    
 BOUNDARY     93   LAYER   1   ROW     7   COL     3   RATE     576.042    
 BOUNDARY     94   LAYER   1   ROW     7   COL     4   RATE     576.042    
 BOUNDARY     95   LAYER   1   ROW     7   COL     5   RATE     576.042    
 BOUNDARY     96   LAYER   1   ROW     7   COL     6   RATE     576.042    
 BOUNDARY     97   LAYER   1   ROW     7   COL     7   RATE     576.042    
 BOUNDARY     98   LAYER   1   ROW     7   COL     8   RATE     576.042    
 BOUNDARY     99   LAYER   1   ROW     7   COL     9   RATE     576.042    
 BOUNDARY    100   LAYER   1   ROW     7   COL    10   RATE     576.042    
 BOUNDARY    101   LAYER   1   ROW     7   COL    11   RATE     576.042    
 BOUNDARY    102   LAYER   1   ROW     7   COL    12   RATE     576.042    
 BOUNDARY    103   LAYER   1   ROW     7   COL    13   RATE     576.042    
 BOUNDARY    104   LAYER   1   ROW     7   COL    14   RATE     576.042    
 BOUNDARY    105   LAYER   1   ROW     7   COL    15   RATE     576.042    
 BOUNDARY    106   LAYER   1   ROW     8   COL     1   RATE     576.042    
 BOUNDARY    107   LAYER   1   ROW     8   COL     2   RATE     576.042    
 BOUNDARY    108   LAYER   1   ROW     8   COL     3   RATE     576.042    
 BOUNDARY    109   LAYER   1   ROW     8   COL     4   RATE     576.042    
 BOUNDARY    110   LAYER   1   ROW     8   COL     5   RATE     576.042    
 BOUNDARY    111   LAYER   1   ROW     8   COL     6   RATE     576.042    
 BOUNDARY    112   LAYER   1   ROW     8   COL     7   RATE     576.042    
 BOUNDARY    113   LAYER   1   ROW     8   COL     8   RATE     576.042    
 BOUNDARY    114   LAYER   1   ROW     8   COL     9   RATE     576.042    
 BOUNDARY    115   LAYER   1   ROW     8   COL    10   RATE     576.042    
 BOUNDARY    116   LAYER   1   ROW     8   COL    11   RATE     576.042    
 BOUNDARY    117   LAYER   1   ROW     8   COL    12   RATE     576.042    
 BOUNDARY    118   LAYER   1   ROW     8   COL    13   RATE     576.042    
 BOUNDARY    119   LAYER   1   ROW     8   COL    14   RATE     576.042    
 BOUNDARY    120   LAYER   1   ROW     8   COL    15   RATE     576.042    
 BOUNDARY    121   LAYER   1   ROW     9   COL     1   RATE     576.042    
 BOUNDARY    122   LAYER   1   ROW     9   COL     2   RATE     576.042    
 BOUNDARY    123   LAYER   1   ROW     9   COL     3   RATE     576.042    
 BOUNDARY    124   LAYER   1   ROW     9   COL     4   RATE     576.042    
 BOUNDARY    125   LAYER   1   ROW     9   COL     5   RATE     576.042    
 BOUNDARY    126   LAYER   1   ROW     9   COL     6   RATE     576.042    
 BOUNDARY    127   LAYER   1   ROW     9   COL     7   RATE     576.042    
 BOUNDARY    128   LAYER   1   ROW     9   COL     8   RATE     576.042    
 BOUNDARY    129   LAYER   1   ROW     9   COL     9   RATE     576.042    
 BOUNDARY    130   LAYER   1   ROW     9   COL    10   RATE     576.042    
 BOUNDARY    131   LAYER   1   ROW     9   COL    11   RATE     576.042    
 BOUNDARY    132   LAYER   1   ROW     9   COL    12   RATE     576.042    
 BOUNDARY    133   LAYER   1   ROW     9   COL    13   RATE     576.042    
 BOUNDARY    134   LAYER   1   ROW     9   COL    14   RATE     576.042    
 BOUNDARY    135   LAYER   1   ROW     9   COL    15   RATE     576.042    
 BOUNDARY    136   LAYER   1   ROW    10   COL     1   RATE     576.042    
 BOUNDARY    137   LAYER   1   ROW    10   COL     2   RATE     576.042    
 BOUNDARY    138   LAYER   1   ROW    10   COL     3   RATE     576.042    
 BOUNDARY    139   LAYER   1   ROW    10   COL     4   RATE     576.042    
 BOUNDARY    140   LAYER   1   ROW    10   COL     5   RATE     576.042    
 BOUNDARY    141   LAYER   1   ROW    10   COL     6   RATE     576.042    
 BOUNDARY    142   LAYER   1   ROW    10   COL     7   RATE     576.042    
 BOUNDARY    143   LAYER   1   ROW    10   COL     8   RATE     576.042    
 BOUNDARY    144   LAYER   1   ROW    10   COL     9   RATE     576.042    
 BOUNDARY    145   LAYER   1   ROW    10   COL    10   RATE     576.042    
 BOUNDARY    146   LAYER   1   ROW    10   COL    11   RATE     576.042    
 BOUNDARY    147   LAYER   1   ROW    10   COL    12   RATE     576.042    
 BOUNDARY    148   LAYER   1   ROW    10   COL    13   RATE     576.042    
 BOUNDARY    149   LAYER   1   ROW    10   COL    14   RATE     576.042    
 BOUNDARY    150   LAYER   1   ROW    10   COL    15   RATE     576.042    
 UBDSV4 SAVING ET SEGS          ON UNIT   1016 AT TIME STEP      5, STRESS PERIOD      3

 ET SEGS            PERIOD  3   STEP  5
 BOUNDARY      1   LAYER   1   ROW     1   COL     1   RATE    -2.17402    
 BOUNDARY      2   LAYER   1   ROW     1   COL     2   RATE    -9.02700    
 BOUNDARY      3   LAYER   1   ROW     1   COL     3   RATE    -49.5307    
 BOUNDARY      4   LAYER   1   ROW     1   COL     4   RATE   -100.0000    
 BOUNDARY      5   LAYER   1   ROW     1   COL     5   RATE   -100.0000    
 BOUNDARY      6   LAYER   1   ROW     1   COL     6   RATE   -100.0000    
 BOUNDARY      7   LAYER   1   ROW     1   COL     7   RATE   -100.0000    
 BOUNDARY      8   LAYER   1   ROW     1   COL     8   RATE   -100.0000    
 BOUNDARY      9   LAYER   1   ROW     1   COL     9   RATE   -100.0000    
 BOUNDARY     10   LAYER   1   ROW     1   COL    10   RATE   -100.0000    
 BOUNDARY     11   LAYER   1   ROW     1   COL    11   RATE   -100.0000    
 BOUNDARY     12   LAYER   1   ROW     1   COL    12   RATE    -16.8745    
 BOUNDARY     13   LAYER   1   ROW     1   COL    13   RATE     0.00000    
 BOUNDARY     14   LAYER   1   ROW     1   COL    14   RATE     0.00000    
 BOUNDARY     15   LAYER   1   ROW     1   COL    15   RATE     0.00000    
 BOUNDARY     16   LAYER   1   ROW     2   COL     1   RATE     0.00000    
 BOUNDARY     17   LAYER   1   ROW     2   COL     2   RATE    -4.51034    
 BOUNDARY     18   LAYER   1   ROW     2   COL     3   RATE    -28.2962    
 BOUNDARY     19   LAYER   1   ROW     2   COL     4   RATE   -100.0000    
 BOUNDARY     20   LAYER   1   ROW     2   COL     5   RATE   -100.0000    
 BOUNDARY     21   LAYER   1   ROW     2   COL     6   RATE   -100.0000    
 BOUNDARY     22   LAYER   1   ROW     2   COL     7   RATE   -100.0000    
 BOUNDARY     23   LAYER   1   ROW     2   COL     8   RATE   -100.0000    
 BOUNDARY     24   LAYER   1   ROW     2   COL     9   RATE   -100.0000    
 BOUNDARY     25   LAYER   1   ROW     2   COL    10   RATE   -100.0000    
 BOUNDARY     26   LAYER   1   ROW     2   COL    11   RATE   -100.0000    
 BOUNDARY     27   LAYER   1   ROW     2   COL    12   RATE    -18.6140    
 BOUNDARY     28   LAYER   1   ROW     2   COL    13   RATE   -0.133646    
 BOUNDARY     29   LAYER   1   ROW     2   COL    14   RATE     0.00000    
 BOUNDARY     30   LAYER   1   ROW     2   COL    15   RATE     0.00000    
 BOUNDARY     31   LAYER   1   ROW     3   COL     1   RATE     0.00000    
 BOUNDARY     32   LAYER   1   ROW     3   COL     2   RATE     0.00000    
 BOUNDARY     33   LAYER   1   ROW     3   COL     3   RATE    -22.3615    
 BOUNDARY     34   LAYER   1   ROW     3   COL     4   RATE   -100.0000    
 BOUNDARY     35   LAYER   1   ROW     3   COL     5   RATE   -100.0000    
 BOUNDARY     36   LAYER   1   ROW     3   COL     6   RATE   -100.0000    
 BOUNDARY     37   LAYER   1   ROW     3   COL     7   RATE   -100.0000    
 BOUNDARY     38   LAYER   1   ROW     3   COL     8   RATE   -100.0000    
 BOUNDARY     39   LAYER   1   ROW     3   COL     9   RATE   -100.0000    
 BOUNDARY     40   LAYER   1   ROW     3   COL    10   RATE   -100.0000    
 BOUNDARY     41   LAYER   1   ROW     3   COL    11   RATE   -100.0000    
 BOUNDARY     42   LAYER   1   ROW     3   COL    12   RATE    -21.5480    
 BOUNDARY     43   LAYER   1   ROW     3   COL    13   RATE    -1.92088    
 BOUNDARY     44   LAYER   1   ROW     3   COL    14   RATE     0.00000    
 BOUNDARY     45   LAYER   1   ROW     3   COL    15   RATE     0.00000    
 BOUNDARY     46   LAYER   1   ROW     4   COL     1   RATE     0.00000    
 BOUNDARY     47   LAYER   1   ROW     4   COL     2   RATE    -2.99697    
 BOUNDARY     48   LAYER   1   ROW     4   COL     3   RATE    -26.2297    
 BOUNDARY     49   LAYER   1   ROW     4   COL     4   RATE   -100.0000    
 BOUNDARY     50   LAYER   1   ROW     4   COL     5   RATE   -100.0000    
 BOUNDARY     51   LAYER   1   ROW     4   COL     6   RATE   -100.0000    
 BOUNDARY     52   LAYER   1   ROW     4   COL     7   RATE   -100.0000    
 BOUNDARY     53   LAYER   1   ROW     4   COL     8   RATE   -100.0000    
 BOUNDARY     54   LAYER   1   ROW     4   COL     9   RATE   -100.0000    
 BOUNDARY     55   LAYER   1   ROW     4   COL    10   RATE   -100.0000    
 BOUNDARY     56   LAYER   1   ROW     4   COL    11   RATE   -100.0000    
 BOUNDARY     57   LAYER   1   ROW     4   COL    12   RATE    -24.3478    
 BOUNDARY     58   LAYER   1   ROW     4   COL    13   RATE    -3.38299    
 BOUNDARY     59   LAYER   1   ROW     4   COL    14   RATE     0.00000    
 BOUNDARY     60   LAYER   1   ROW     4   COL    15   RATE     0.00000    
 BOUNDARY     61   LAYER   1   ROW     5   COL     1   RATE     0.00000    
 BOUNDARY     62   LAYER   1   ROW     5   COL     2   RATE    -5.97089    
 BOUNDARY     63   LAYER   1   ROW     5   COL     3   RATE    -31.1352    
 BOUNDARY     64   LAYER   1   ROW     5   COL     4   RATE   -100.0000    
 BOUNDARY     65   LAYER   1   ROW     5   COL     5   RATE   -100.0000    
 BOUNDARY     66   LAYER   1   ROW     5   COL     6   RATE   -100.0000    
 BOUNDARY     67   LAYER   1   ROW     5   COL     7   RATE   -100.0000    
 BOUNDARY     68   LAYER   1   ROW     5   COL     8   RATE   -100.0000    
 BOUNDARY     69   LAYER   1   ROW     5   COL     9   RATE   -100.0000    
 BOUNDARY     70   LAYER   1   ROW     5   COL    10   RATE   -100.0000    
 BOUNDARY     71   LAYER   1   ROW     5   COL    11   RATE   -100.0000    
 BOUNDARY     72   LAYER   1   ROW     5   COL    12   RATE    -26.2856    
 BOUNDARY     73   LAYER   1   ROW     5   COL    13   RATE    -4.28989    
 BOUNDARY     74   LAYER   1   ROW     5   COL    14   RATE     0.00000    
 BOUNDARY     75   LAYER   1   ROW     5   COL    15   RATE     0.00000    
 BOUNDARY     76   LAYER   1   ROW     6   COL     1   RATE     0.00000    
 BOUNDARY     77   LAYER   1   ROW     6   COL     2   RATE    -4.54105    
 BOUNDARY     78   LAYER   1   ROW     6   COL     3   RATE    -34.9919    
 BOUNDARY     79   LAYER   1   ROW     6   COL     4   RATE   -100.0000    
 BOUNDARY     80   LAYER   1   ROW     6   COL     5   RATE   -100.0000    
 BOUNDARY     81   LAYER   1   ROW     6   COL     6   RATE   -100.0000    
 BOUNDARY     82   LAYER   1   ROW     6   COL     7   RATE   -100.0000    
 BOUNDARY     83   LAYER   1   ROW     6   COL     8   RATE   -100.0000    
 BOUNDARY     84   LAYER   1   ROW     6   COL     9   RATE   -100.0000    
 BOUNDARY     85   LAYER   1   ROW     6   COL    10   RATE   -100.0000    
 BOUNDARY     86   LAYER   1   ROW     6   COL    11   RATE   -100.0000    
 BOUNDARY     87   LAYER   1   ROW     6   COL    12   RATE    -26.9349    
 BOUNDARY     88   LAYER   1   ROW     6   COL    13   RATE    -4.24852    
 BOUNDARY     89   LAYER   1   ROW     6   COL    14   RATE     0.00000    
 BOUNDARY     90   LAYER   1   ROW     6   COL    15   RATE     0.00000    
 BOUNDARY     91   LAYER   1   ROW     7   COL     1   RATE     0.00000    
 BOUNDARY     92   LAYER   1   ROW     7   COL     2   RATE    -1.04222    
 BOUNDARY     93   LAYER   1   ROW     7   COL     3   RATE    -41.8672    
 BOUNDARY     94   LAYER   1   ROW     7   COL     4   RATE   -100.0000    
 BOUNDARY     95   LAYER   1   ROW     7   COL     5   RATE   -100.0000    
 BOUNDARY     96   LAYER   1   ROW     7   COL     6   RATE   -100.0000    
 BOUNDARY     97   LAYER   1   ROW     7   COL     7   RATE   -100.0000    
 BOUNDARY     98   LAYER   1   ROW     7   COL     8   RATE   -100.0000    
 BOUNDARY     99   LAYER   1   ROW     7   COL     9   RATE   -100.0000    
 BOUNDARY    100   LAYER   1   ROW     7   COL    10   RATE   -100.0000    
 BOUNDARY    101   LAYER   1   ROW     7   COL    11   RATE   -100.0000    
 BOUNDARY    102   LAYER   1   ROW     7   COL    12   RATE    -26.7735    
 BOUNDARY    103   LAYER   1   ROW     7   COL    13   RATE    -3.51808    
 BOUNDARY    104   LAYER   1   ROW     7   COL    14   RATE     0.00000    
 BOUNDARY    105   LAYER   1   ROW     7   COL    15   RATE     0.00000    
 BOUNDARY    106   LAYER   1   ROW     8   COL     1   RATE     0.00000    
 BOUNDARY    107   LAYER   1   ROW     8   COL     2   RATE    -11.3493    
 BOUNDARY    108   LAYER   1   ROW     8   COL     3   RATE   -100.0000    
 BOUNDARY    109   LAYER   1   ROW     8   COL     4   RATE   -100.0000    
 BOUNDARY    110   LAYER   1   ROW     8   COL     5   RATE   -100.0000    
 BOUNDARY    111   LAYER   1   ROW     8   COL     6   RATE   -100.0000    
 BOUNDARY    112   LAYER   1   ROW     8   COL     7   RATE   -100.0000    
 BOUNDARY    113   LAYER   1   ROW     8   COL     8   RATE   -100.0000    
 BOUNDARY    114   LAYER   1   ROW     8   COL     9   RATE   -100.0000    
 BOUNDARY    115   LAYER   1   ROW     8   COL    10   RATE   -100.0000    
 BOUNDARY    116   LAYER   1   ROW     8   COL    11   RATE   -100.0000    
 BOUNDARY    117   LAYER   1   ROW     8   COL    12   RATE    -27.1618    
 BOUNDARY    118   LAYER   1   ROW     8   COL    13   RATE    -3.52280    
 BOUNDARY    119   LAYER   1   ROW     8   COL    14   RATE     0.00000    
 BOUNDARY    120   LAYER   1   ROW     8   COL    15   RATE     0.00000    
 BOUNDARY    121   LAYER   1   ROW     9   COL     1   RATE    -18.9304    
 BOUNDARY    122   LAYER   1   ROW     9   COL     2   RATE    -60.9687    
 BOUNDARY    123   LAYER   1   ROW     9   COL     3   RATE   -100.0000    
 BOUNDARY    124   LAYER   1   ROW     9   COL     4   RATE   -100.0000    
 BOUNDARY    125   LAYER   1   ROW     9   COL     5   RATE   -100.0000    
 BOUNDARY    126   LAYER   1   ROW     9   COL     6   RATE   -100.0000    
 BOUNDARY    127   LAYER   1   ROW     9   COL     7   RATE   -100.0000    
 BOUNDARY    128   LAYER   1   ROW     9   COL     8   RATE   -100.0000    
 BOUNDARY    129   LAYER   1   ROW     9   COL     9   RATE   -100.0000    
 BOUNDARY    130   LAYER   1   ROW     9   COL    10   RATE   -100.0000    
 BOUNDARY    131   LAYER   1   ROW     9   COL    11   RATE   -100.0000    
 BOUNDARY    132   LAYER   1   ROW     9   COL    12   RATE    -28.2605    
 BOUNDARY    133   LAYER   1   ROW     9   COL    13   RATE    -4.34621    
 BOUNDARY    134   LAYER   1   ROW     9   COL    14   RATE     0.00000    
 BOUNDARY    135   LAYER   1   ROW     9   COL    15   RATE     0.00000    
 BOUNDARY    136   LAYER   1   ROW    10   COL     1   RATE    -69.1824    
 BOUNDARY    137   LAYER   1   ROW    10   COL     2   RATE   -100.0000    
 BOUNDARY    138   LAYER   1   ROW    10   COL     3   RATE   -100.0000    
 BOUNDARY    139   LAYER   1   ROW    10   COL     4   RATE   -100.0000    
 BOUNDARY    140   LAYER   1   ROW    10   COL     5   RATE   -100.0000    
 BOUNDARY    141   LAYER   1   ROW    10   COL     6   RATE   -100.0000    
 BOUNDARY    142   LAYER   1   ROW    10   COL     7   RATE   -100.0000    
 BOUNDARY    143   LAYER   1   ROW    10   COL     8   RATE   -100.0000    
 BOUNDARY    144   LAYER   1   ROW    10   COL     9   RATE   -100.0000    
 BOUNDARY    145   LAYER   1   ROW    10   COL    10   RATE   -100.0000    
 BOUNDARY    146   LAYER   1   ROW    10   COL    11   RATE   -100.0000    
 BOUNDARY    147   LAYER   1   ROW    10   COL    12   RATE    -29.0561    
 BOUNDARY    148   LAYER   1   ROW    10   COL    13   RATE    -4.87458    
 BOUNDARY    149   LAYER   1   ROW    10   COL    14   RATE     0.00000    
 BOUNDARY    150   LAYER   1   ROW    10   COL    15   RATE     0.00000    

 HEAD WILL BE SAVED ON UNIT 1017 AT END OF TIME STEP    5, STRESS PERIOD    3
WEL   no.    2 value from time series:   0.0000     for time:  37.00     to  38.00    
WEL   no.    3 value from time series:   0.0000     for time:  37.00     to  38.00    
RIV   no.    1 value from time series:   101.00     for time:  37.00     to  38.00    
RIV   no.    2 value from time series:   101.00     for time:  37.00     to  38.00    
RIV   no.    3 value from time series:   111.50     for time:  37.00     to  38.00    
RIV   no.    4 value from time series:   111.50     for time:  37.00     to  38.00    
RIV   no.    5 value from time series:   115.10     for time:  37.00     to  38.00    
RIV   no.    6 value from time series:   115.10     for time:  37.00     to  38.00    
RIV   no.    7 value from time series:   104.00     for time:  37.00     to  38.00    
RIV   no.    8 value from time series:   104.00     for time:  37.00     to  38.00    
RIV   no.    9 value from time series:   113.50     for time:  37.00     to  38.00    
RIV   no.   10 value from time series:   113.50     for time:  37.00     to  38.00    
WEL   no.    2 value from time series:   0.0000     for time:  37.00     to  38.00    
WEL   no.    3 value from time series:   0.0000     for time:  37.00     to  38.00    
RIV   no.    1 value from time series:   101.00     for time:  37.00     to  38.00    
RIV   no.    2 value from time series:   101.00     for time:  37.00     to  38.00    
RIV   no.    3 value from time series:   111.50     for time:  37.00     to  38.00    
RIV   no.    4 value from time series:   111.50     for time:  37.00     to  38.00    
RIV   no.    5 value from time series:   115.10     for time:  37.00     to  38.00    
RIV   no.    6 value from time series:   115.10     for time:  37.00     to  38.00    
RIV   no.    7 value from time series:   104.00     for time:  37.00     to  38.00    
RIV   no.    8 value from time series:   104.00     for time:  37.00     to  38.00    
RIV   no.    9 value from time series:   113.50     for time:  37.00     to  38.00    
RIV   no.   10 value from time series:   113.50     for time:  37.00     to  38.00    

 OUTPUT CONTROL FOR STRESS PERIOD    3   TIME STEP    6
    SAVE BUDGET
    SAVE HEAD
    SAVE HEAD FOR ALL LAYERS
 UBDSV1 SAVING          STORAGE ON UNIT   1016 AT TIME STEP      6, STRESS PERIOD      3
 UBDSV1 SAVING FLOW RIGHT FACE  ON UNIT   1016 AT TIME STEP      6, STRESS PERIOD      3
 UBDSV1 SAVING FLOW FRONT FACE  ON UNIT   1016 AT TIME STEP      6, STRESS PERIOD      3
 UBDSV1 SAVING FLOW LOWER FACE  ON UNIT   1016 AT TIME STEP      6, STRESS PERIOD      3
 UBDSV4 SAVING WELLS NEAR RIVER ON UNIT   1016 AT TIME STEP      6, STRESS PERIOD      3

 WELLS NEAR RIVER   PERIOD  3   STEP  6
 BOUNDARY      1   LAYER   1   ROW     2   COL     3   RATE    -50.0000    
 BOUNDARY      2   LAYER   2   ROW     3   COL     4   RATE     0.00000      WELL_1
 BOUNDARY      3   LAYER   2   ROW     8   COL     4   RATE     0.00000      WELL_2
 UBDSV4 SAVING RIVER            ON UNIT   1016 AT TIME STEP      6, STRESS PERIOD      3

 RIVER              PERIOD  3   STEP  6
 BOUNDARY      1   LAYER   1   ROW     1   COL    15   RATE    -4852.72    
 BOUNDARY      2   LAYER   1   ROW     2   COL    15   RATE    -5959.13      RIV2
 BOUNDARY      3   LAYER   1   ROW     3   COL    15   RATE    -2176.45      RIV3
 BOUNDARY      4   LAYER   1   ROW     4   COL    15   RATE    -3632.57    
 BOUNDARY      5   LAYER   1   ROW     5   COL    15   RATE    -2277.95    
 BOUNDARY      6   LAYER   1   ROW     6   COL    15   RATE    -1635.09    
 BOUNDARY      7   LAYER   1   ROW     7   COL    15   RATE    -6127.03      RIVX
 BOUNDARY      8   LAYER   1   ROW     8   COL    15   RATE    -5957.25      RIVX
 BOUNDARY      9   LAYER   1   ROW     9   COL    15   RATE    -2133.90      RIVX
 BOUNDARY     10   LAYER   1   ROW    10   COL    15   RATE    -3021.57    

 GHB LAKES          PERIOD  3   STEP  6
 BOUNDARY      1   LAYER   1   ROW     3   COL     1   RATE    -14473.3    
 BOUNDARY      2   LAYER   1   ROW     7   COL     1   RATE    -1844.98      GHB2_UPPER
 BOUNDARY      3   LAYER   1   ROW     7   COL     1   RATE    -13236.5      GHB2_LOWER
 UBDSV4 SAVING RECHARGE         ON UNIT   1016 AT TIME STEP      6, STRESS PERIOD      3

 RECHARGE           PERIOD  3   STEP  6
 BOUNDARY      1   LAYER   1   ROW     1   COL     1   RATE     578.125    
 BOUNDARY      2   LAYER   1   ROW     1   COL     2   RATE     578.125    
 BOUNDARY      3   LAYER   1   ROW     1   COL     3   RATE     578.125    
 BOUNDARY      4   LAYER   1   ROW     1   COL     4   RATE     578.125    
 BOUNDARY      5   LAYER   1   ROW     1   COL     5   RATE     578.125    
 BOUNDARY      6   LAYER   1   ROW     1   COL     6   RATE     578.125    
 BOUNDARY      7   LAYER   1   ROW     1   COL     7   RATE     578.125    
 BOUNDARY      8   LAYER   1   ROW     1   COL     8   RATE     578.125    
 BOUNDARY      9   LAYER   1   ROW     1   COL     9   RATE     578.125    
 BOUNDARY     10   LAYER   1   ROW     1   COL    10   RATE     578.125    
 BOUNDARY     11   LAYER   1   ROW     1   COL    11   RATE     578.125    
 BOUNDARY     12   LAYER   1   ROW     1   COL    12   RATE     578.125    
 BOUNDARY     13   LAYER   1   ROW     1   COL    13   RATE     578.125    
 BOUNDARY     14   LAYER   1   ROW     1   COL    14   RATE     578.125    
 BOUNDARY     15   LAYER   1   ROW     1   COL    15   RATE     578.125    
 BOUNDARY     16   LAYER   1   ROW     2   COL     1   RATE     578.125    
 BOUNDARY     17   LAYER   1   ROW     2   COL     2   RATE     578.125    
 BOUNDARY     18   LAYER   1   ROW     2   COL     3   RATE     578.125    
 BOUNDARY     19   LAYER   1   ROW     2   COL     4   RATE     578.125    
 BOUNDARY     20   LAYER   1   ROW     2   COL     5   RATE     578.125    
 BOUNDARY     21   LAYER   1   ROW     2   COL     6   RATE     578.125    
 BOUNDARY     22   LAYER   1   ROW     2   COL     7   RATE     578.125    
 BOUNDARY     23   LAYER   1   ROW     2   COL     8   RATE     578.125    
 BOUNDARY     24   LAYER   1   ROW     2   COL     9   RATE     578.125    
 BOUNDARY     25   LAYER   1   ROW     2   COL    10   RATE     578.125    
 BOUNDARY     26   LAYER   1   ROW     2   COL    11   RATE     578.125    
 BOUNDARY     27   LAYER   1   ROW     2   COL    12   RATE     578.125    
 BOUNDARY     28   LAYER   1   ROW     2   COL    13   RATE     578.125    
 BOUNDARY     29   LAYER   1   ROW     2   COL    14   RATE     578.125    
 BOUNDARY     30   LAYER   1   ROW     2   COL    15   RATE     578.125    
 BOUNDARY     31   LAYER   1   ROW     3   COL     1   RATE     578.125    
 BOUNDARY     32   LAYER   1   ROW     3   COL     2   RATE     578.125    
 BOUNDARY     33   LAYER   1   ROW     3   COL     3   RATE     578.125    
 BOUNDARY     34   LAYER   1   ROW     3   COL     4   RATE     578.125    
 BOUNDARY     35   LAYER   1   ROW     3   COL     5   RATE     578.125    
 BOUNDARY     36   LAYER   1   ROW     3   COL     6   RATE     578.125    
 BOUNDARY     37   LAYER   1   ROW     3   COL     7   RATE     578.125    
 BOUNDARY     38   LAYER   1   ROW     3   COL     8   RATE     578.125    
 BOUNDARY     39   LAYER   1   ROW     3   COL     9   RATE     578.125    
 BOUNDARY     40   LAYER   1   ROW     3   COL    10   RATE     578.125    
 BOUNDARY     41   LAYER   1   ROW     3   COL    11   RATE     578.125    
 BOUNDARY     42   LAYER   1   ROW     3   COL    12   RATE     578.125    
 BOUNDARY     43   LAYER   1   ROW     3   COL    13   RATE     578.125    
 BOUNDARY     44   LAYER   1   ROW     3   COL    14   RATE     578.125    
 BOUNDARY     45   LAYER   1   ROW     3   COL    15   RATE     578.125    
 BOUNDARY     46   LAYER   1   ROW     4   COL     1   RATE     578.125    
 BOUNDARY     47   LAYER   1   ROW     4   COL     2   RATE     578.125    
 BOUNDARY     48   LAYER   1   ROW     4   COL     3   RATE     578.125    
 BOUNDARY     49   LAYER   1   ROW     4   COL     4   RATE     578.125    
 BOUNDARY     50   LAYER   1   ROW     4   COL     5   RATE     578.125    
 BOUNDARY     51   LAYER   1   ROW     4   COL     6   RATE     578.125    
 BOUNDARY     52   LAYER   1   ROW     4   COL     7   RATE     578.125    
 BOUNDARY     53   LAYER   1   ROW     4   COL     8   RATE     578.125    
 BOUNDARY     54   LAYER   1   ROW     4   COL     9   RATE     578.125    
 BOUNDARY     55   LAYER   1   ROW     4   COL    10   RATE     578.125    
 BOUNDARY     56   LAYER   1   ROW     4   COL    11   RATE     578.125    
 BOUNDARY     57   LAYER   1   ROW     4   COL    12   RATE     578.125    
 BOUNDARY     58   LAYER   1   ROW     4   COL    13   RATE     578.125    
 BOUNDARY     59   LAYER   1   ROW     4   COL    14   RATE     578.125    
 BOUNDARY     60   LAYER   1   ROW     4   COL    15   RATE     578.125    
 BOUNDARY     61   LAYER   1   ROW     5   COL     1   RATE     578.125    
 BOUNDARY     62   LAYER   1   ROW     5   COL     2   RATE     578.125    
 BOUNDARY     63   LAYER   1   ROW     5   COL     3   RATE     578.125    
 BOUNDARY     64   LAYER   1   ROW     5   COL     4   RATE     578.125    
 BOUNDARY     65   LAYER   1   ROW     5   COL     5   RATE     578.125    
 BOUNDARY     66   LAYER   1   ROW     5   COL     6   RATE     578.125    
 BOUNDARY     67   LAYER   1   ROW     5   COL     7   RATE     578.125    
 BOUNDARY     68   LAYER   1   ROW     5   COL     8   RATE     578.125    
 BOUNDARY     69   LAYER   1   ROW     5   COL     9   RATE     578.125    
 BOUNDARY     70   LAYER   1   ROW     5   COL    10   RATE     578.125    
 BOUNDARY     71   LAYER   1   ROW     5   COL    11   RATE     578.125    
 BOUNDARY     72   LAYER   1   ROW     5   COL    12   RATE     578.125    
 BOUNDARY     73   LAYER   1   ROW     5   COL    13   RATE     578.125    
 BOUNDARY     74   LAYER   1   ROW     5   COL    14   RATE     578.125    
 BOUNDARY     75   LAYER   1   ROW     5   COL    15   RATE     578.125    
 BOUNDARY     76   LAYER   1   ROW     6   COL     1   RATE     578.125    
 BOUNDARY     77   LAYER   1   ROW     6   COL     2   RATE     578.125    
 BOUNDARY     78   LAYER   1   ROW     6   COL     3   RATE     578.125    
 BOUNDARY     79   LAYER   1   ROW     6   COL     4   RATE     578.125    
 BOUNDARY     80   LAYER   1   ROW     6   COL     5   RATE     578.125    
 BOUNDARY     81   LAYER   1   ROW     6   COL     6   RATE     578.125    
 BOUNDARY     82   LAYER   1   ROW     6   COL     7   RATE     578.125    
 BOUNDARY     83   LAYER   1   ROW     6   COL     8   RATE     578.125    
 BOUNDARY     84   LAYER   1   ROW     6   COL     9   RATE     578.125    
 BOUNDARY     85   LAYER   1   ROW     6   COL    10   RATE     578.125    
 BOUNDARY     86   LAYER   1   ROW     6   COL    11   RATE     578.125    
 BOUNDARY     87   LAYER   1   ROW     6   COL    12   RATE     578.125    
 BOUNDARY     88   LAYER   1   ROW     6   COL    13   RATE     578.125    
 BOUNDARY     89   LAYER   1   ROW     6   COL    14   RATE     578.125    
 BOUNDARY     90   LAYER   1   ROW     6   COL    15   RATE     578.125    
 BOUNDARY     91   LAYER   1   ROW     7   COL     1   RATE     578.125    
 BOUNDARY     92   LAYER   1   ROW     7   COL     2   RATE     578.125    
 BOUNDARY     93   LAYER   1   ROW     7   COL     3   RATE     578.125    
 BOUNDARY     94   LAYER   1   ROW     7   COL     4   RATE     578.125    
 BOUNDARY     95   LAYER   1   ROW     7   COL     5   RATE     578.125    
 BOUNDARY     96   LAYER   1   ROW     7   COL     6   RATE     578.125    
 BOUNDARY     97   LAYER   1   ROW     7   COL     7   RATE     578.125    
 BOUNDARY     98   LAYER   1   ROW     7   COL     8   RATE     578.125    
 BOUNDARY     99   LAYER   1   ROW     7   COL     9   RATE     578.125    
 BOUNDARY    100   LAYER   1   ROW     7   COL    10   RATE     578.125    
 BOUNDARY    101   LAYER   1   ROW     7   COL    11   RATE     578.125    
 BOUNDARY    102   LAYER   1   ROW     7   COL    12   RATE     578.125    
 BOUNDARY    103   LAYER   1   ROW     7   COL    13   RATE     578.125    
 BOUNDARY    104   LAYER   1   ROW     7   COL    14   RATE     578.125    
 BOUNDARY    105   LAYER   1   ROW     7   COL    15   RATE     578.125    
 BOUNDARY    106   LAYER   1   ROW     8   COL     1   RATE     578.125    
 BOUNDARY    107   LAYER   1   ROW     8   COL     2   RATE     578.125    
 BOUNDARY    108   LAYER   1   ROW     8   COL     3   RATE     578.125    
 BOUNDARY    109   LAYER   1   ROW     8   COL     4   RATE     578.125    
 BOUNDARY    110   LAYER   1   ROW     8   COL     5   RATE     578.125    
 BOUNDARY    111   LAYER   1   ROW     8   COL     6   RATE     578.125    
 BOUNDARY    112   LAYER   1   ROW     8   COL     7   RATE     578.125    
 BOUNDARY    113   LAYER   1   ROW     8   COL     8   RATE     578.125    
 BOUNDARY    114   LAYER   1   ROW     8   COL     9   RATE     578.125    
 BOUNDARY    115   LAYER   1   ROW     8   COL    10   RATE     578.125    
 BOUNDARY    116   LAYER   1   ROW     8   COL    11   RATE     578.125    
 BOUNDARY    117   LAYER   1   ROW     8   COL    12   RATE     578.125    
 BOUNDARY    118   LAYER   1   ROW     8   COL    13   RATE     578.125    
 BOUNDARY    119   LAYER   1   ROW     8   COL    14   RATE     578.125    
 BOUNDARY    120   LAYER   1   ROW     8   COL    15   RATE     578.125    
 BOUNDARY    121   LAYER   1   ROW     9   COL     1   RATE     578.125    
 BOUNDARY    122   LAYER   1   ROW     9   COL     2   RATE     578.125    
 BOUNDARY    123   LAYER   1   ROW     9   COL     3   RATE     578.125    
 BOUNDARY    124   LAYER   1   ROW     9   COL     4   RATE     578.125    
 BOUNDARY    125   LAYER   1   ROW     9   COL     5   RATE     578.125    
 BOUNDARY    126   LAYER   1   ROW     9   COL     6   RATE     578.125    
 BOUNDARY    127   LAYER   1   ROW     9   COL     7   RATE     578.125    
 BOUNDARY    128   LAYER   1   ROW     9   COL     8   RATE     578.125    
 BOUNDARY    129   LAYER   1   ROW     9   COL     9   RATE     578.125    
 BOUNDARY    130   LAYER   1   ROW     9   COL    10   RATE     578.125    
 BOUNDARY    131   LAYER   1   ROW     9   COL    11   RATE     578.125    
 BOUNDARY    132   LAYER   1   ROW     9   COL    12   RATE     578.125    
 BOUNDARY    133   LAYER   1   ROW     9   COL    13   RATE     578.125    
 BOUNDARY    134   LAYER   1   ROW     9   COL    14   RATE     578.125    
 BOUNDARY    135   LAYER   1   ROW     9   COL    15   RATE     578.125    
 BOUNDARY    136   LAYER   1   ROW    10   COL     1   RATE     578.125    
 BOUNDARY    137   LAYER   1   ROW    10   COL     2   RATE     578.125    
 BOUNDARY    138   LAYER   1   ROW    10   COL     3   RATE     578.125    
 BOUNDARY    139   LAYER   1   ROW    10   COL     4   RATE     578.125    
 BOUNDARY    140   LAYER   1   ROW    10   COL     5   RATE     578.125    
 BOUNDARY    141   LAYER   1   ROW    10   COL     6   RATE     578.125    
 BOUNDARY    142   LAYER   1   ROW    10   COL     7   RATE     578.125    
 BOUNDARY    143   LAYER   1   ROW    10   COL     8   RATE     578.125    
 BOUNDARY    144   LAYER   1   ROW    10   COL     9   RATE     578.125    
 BOUNDARY    145   LAYER   1   ROW    10   COL    10   RATE     578.125    
 BOUNDARY    146   LAYER   1   ROW    10   COL    11   RATE     578.125    
 BOUNDARY    147   LAYER   1   ROW    10   COL    12   RATE     578.125    
 BOUNDARY    148   LAYER   1   ROW    10   COL    13   RATE     578.125    
 BOUNDARY    149   LAYER   1   ROW    10   COL    14   RATE     578.125    
 BOUNDARY    150   LAYER   1   ROW    10   COL    15   RATE     578.125    
 UBDSV4 SAVING ET SEGS          ON UNIT   1016 AT TIME STEP      6, STRESS PERIOD      3

 ET SEGS            PERIOD  3   STEP  6
 BOUNDARY      1   LAYER   1   ROW     1   COL     1   RATE    -2.18005    
 BOUNDARY      2   LAYER   1   ROW     1   COL     2   RATE    -9.03304    
 BOUNDARY      3   LAYER   1   ROW     1   COL     3   RATE    -49.6315    
 BOUNDARY      4   LAYER   1   ROW     1   COL     4   RATE   -100.0000    
 BOUNDARY      5   LAYER   1   ROW     1   COL     5   RATE   -100.0000    
 BOUNDARY      6   LAYER   1   ROW     1   COL     6   RATE   -100.0000    
 BOUNDARY      7   LAYER   1   ROW     1   COL     7   RATE   -100.0000    
 BOUNDARY      8   LAYER   1   ROW     1   COL     8   RATE   -100.0000    
 BOUNDARY      9   LAYER   1   ROW     1   COL     9   RATE   -100.0000    
 BOUNDARY     10   LAYER   1   ROW     1   COL    10   RATE   -100.0000    
 BOUNDARY     11   LAYER   1   ROW     1   COL    11   RATE   -100.0000    
 BOUNDARY     12   LAYER   1   ROW     1   COL    12   RATE    -16.8956    
 BOUNDARY     13   LAYER   1   ROW     1   COL    13   RATE     0.00000    
 BOUNDARY     14   LAYER   1   ROW     1   COL    14   RATE     0.00000    
 BOUNDARY     15   LAYER   1   ROW     1   COL    15   RATE     0.00000    
 BOUNDARY     16   LAYER   1   ROW     2   COL     1   RATE     0.00000    
 BOUNDARY     17   LAYER   1   ROW     2   COL     2   RATE    -4.51610    
 BOUNDARY     18   LAYER   1   ROW     2   COL     3   RATE    -28.3066    
 BOUNDARY     19   LAYER   1   ROW     2   COL     4   RATE   -100.0000    
 BOUNDARY     20   LAYER   1   ROW     2   COL     5   RATE   -100.0000    
 BOUNDARY     21   LAYER   1   ROW     2   COL     6   RATE   -100.0000    
 BOUNDARY     22   LAYER   1   ROW     2   COL     7   RATE   -100.0000    
 BOUNDARY     23   LAYER   1   ROW     2   COL     8   RATE   -100.0000    
 BOUNDARY     24   LAYER   1   ROW     2   COL     9   RATE   -100.0000    
 BOUNDARY     25   LAYER   1   ROW     2   COL    10   RATE   -100.0000    
 BOUNDARY     26   LAYER   1   ROW     2   COL    11   RATE   -100.0000    
 BOUNDARY     27   LAYER   1   ROW     2   COL    12   RATE    -18.6351    
 BOUNDARY     28   LAYER   1   ROW     2   COL    13   RATE   -0.140609    
 BOUNDARY     29   LAYER   1   ROW     2   COL    14   RATE     0.00000    
 BOUNDARY     30   LAYER   1   ROW     2   COL    15   RATE     0.00000    
 BOUNDARY     31   LAYER   1   ROW     3   COL     1   RATE     0.00000    
 BOUNDARY     32   LAYER   1   ROW     3   COL     2   RATE     0.00000    
 BOUNDARY     33   LAYER   1   ROW     3   COL     3   RATE    -22.3808    
 BOUNDARY     34   LAYER   1   ROW     3   COL     4   RATE   -100.0000    
 BOUNDARY     35   LAYER   1   ROW     3   COL     5   RATE   -100.0000    
 BOUNDARY     36   LAYER   1   ROW     3   COL     6   RATE   -100.0000    
 BOUNDARY     37   LAYER   1   ROW     3   COL     7   RATE   -100.0000    
 BOUNDARY     38   LAYER   1   ROW     3   COL     8   RATE   -100.0000    
 BOUNDARY     39   LAYER   1   ROW     3   COL     9   RATE   -100.0000    
 BOUNDARY     40   LAYER   1   ROW     3   COL    10   RATE   -100.0000    
 BOUNDARY     41   LAYER   1   ROW     3   COL    11   RATE   -100.0000    
 BOUNDARY     42   LAYER   1   ROW     3   COL    12   RATE    -21.5691    
 BOUNDARY     43   LAYER   1   ROW     3   COL    13   RATE    -1.92796    
 BOUNDARY     44   LAYER   1   ROW     3   COL    14   RATE     0.00000    
 BOUNDARY     45   LAYER   1   ROW     3   COL    15   RATE     0.00000    
 BOUNDARY     46   LAYER   1   ROW     4   COL     1   RATE     0.00000    
 BOUNDARY     47   LAYER   1   ROW     4   COL     2   RATE    -3.00296    
 BOUNDARY     48   LAYER   1   ROW     4   COL     3   RATE    -26.2498    
 BOUNDARY     49   LAYER   1   ROW     4   COL     4   RATE   -100.0000    
 BOUNDARY     50   LAYER   1   ROW     4   COL     5   RATE   -100.0000    
 BOUNDARY     51   LAYER   1   ROW     4   COL     6   RATE   -100.0000    
 BOUNDARY     52   LAYER   1   ROW     4   COL     7   RATE   -100.0000    
 BOUNDARY     53   LAYER   1   ROW     4   COL     8   RATE   -100.0000    
 BOUNDARY     54   LAYER   1   ROW     4   COL     9   RATE   -100.0000    
 BOUNDARY     55   LAYER   1   ROW     4   COL    10   RATE   -100.0000    
 BOUNDARY     56   LAYER   1   ROW     4   COL    11   RATE   -100.0000    
 BOUNDARY     57   LAYER   1   ROW     4   COL    12   RATE    -24.3688    
 BOUNDARY     58   LAYER   1   ROW     4   COL    13   RATE    -3.38984    
 BOUNDARY     59   LAYER   1   ROW     4   COL    14   RATE     0.00000    
 BOUNDARY     60   LAYER   1   ROW     4   COL    15   RATE     0.00000    
 BOUNDARY     61   LAYER   1   ROW     5   COL     1   RATE     0.00000    
 BOUNDARY     62   LAYER   1   ROW     5   COL     2   RATE    -5.97693    
 BOUNDARY     63   LAYER   1   ROW     5   COL     3   RATE    -31.2402    
 BOUNDARY     64   LAYER   1   ROW     5   COL     4   RATE   -100.0000    
 BOUNDARY     65   LAYER   1   ROW     5   COL     5   RATE   -100.0000    
 BOUNDARY     66   LAYER   1   ROW     5   COL     6   RATE   -100.0000    
 BOUNDARY     67   LAYER   1   ROW     5   COL     7   RATE   -100.0000    
 BOUNDARY     68   LAYER   1   ROW     5   COL     8   RATE   -100.0000    
 BOUNDARY     69   LAYER   1   ROW     5   COL     9   RATE   -100.0000    
 BOUNDARY     70   LAYER   1   ROW     5   COL    10   RATE   -100.0000    
 BOUNDARY     71   LAYER   1   ROW     5   COL    11   RATE   -100.0000    
 BOUNDARY     72   LAYER   1   ROW     5   COL    12   RATE    -26.3062    
 BOUNDARY     73   LAYER   1   ROW     5   COL    13   RATE    -4.29619    
 BOUNDARY     74   LAYER   1   ROW     5   COL    14   RATE     0.00000    
 BOUNDARY     75   LAYER   1   ROW     5   COL    15   RATE     0.00000    
 BOUNDARY     76   LAYER   1   ROW     6   COL     1   RATE     0.00000    
 BOUNDARY     77   LAYER   1   ROW     6   COL     2   RATE    -4.54696    
 BOUNDARY     78   LAYER   1   ROW     6   COL     3   RATE    -35.0962    
 BOUNDARY     79   LAYER   1   ROW     6   COL     4   RATE   -100.0000    
 BOUNDARY     80   LAYER   1   ROW     6   COL     5   RATE   -100.0000    
 BOUNDARY     81   LAYER   1   ROW     6   COL     6   RATE   -100.0000    
 BOUNDARY     82   LAYER   1   ROW     6   COL     7   RATE   -100.0000    
 BOUNDARY     83   LAYER   1   ROW     6   COL     8   RATE   -100.0000    
 BOUNDARY     84   LAYER   1   ROW     6   COL     9   RATE   -100.0000    
 BOUNDARY     85   LAYER   1   ROW     6   COL    10   RATE   -100.0000    
 BOUNDARY     86   LAYER   1   ROW     6   COL    11   RATE   -100.0000    
 BOUNDARY     87   LAYER   1   ROW     6   COL    12   RATE    -26.9555    
 BOUNDARY     88   LAYER   1   ROW     6   COL    13   RATE    -4.25470    
 BOUNDARY     89   LAYER   1   ROW     6   COL    14   RATE     0.00000    
 BOUNDARY     90   LAYER   1   ROW     6   COL    15   RATE     0.00000    
 BOUNDARY     91   LAYER   1   ROW     7   COL     1   RATE     0.00000    
 BOUNDARY     92   LAYER   1   ROW     7   COL     2   RATE    -1.04776    
 BOUNDARY     93   LAYER   1   ROW     7   COL     3   RATE    -41.9708    
 BOUNDARY     94   LAYER   1   ROW     7   COL     4   RATE   -100.0000    
 BOUNDARY     95   LAYER   1   ROW     7   COL     5   RATE   -100.0000    
 BOUNDARY     96   LAYER   1   ROW     7   COL     6   RATE   -100.0000    
 BOUNDARY     97   LAYER   1   ROW     7   COL     7   RATE   -100.0000    
 BOUNDARY     98   LAYER   1   ROW     7   COL     8   RATE   -100.0000    
 BOUNDARY     99   LAYER   1   ROW     7   COL     9   RATE   -100.0000    
 BOUNDARY    100   LAYER   1   ROW     7   COL    10   RATE   -100.0000    
 BOUNDARY    101   LAYER   1   ROW     7   COL    11   RATE   -100.0000    
 BOUNDARY    102   LAYER   1   ROW     7   COL    12   RATE    -26.7943    
 BOUNDARY    103   LAYER   1   ROW     7   COL    13   RATE    -3.52454    
 BOUNDARY    104   LAYER   1   ROW     7   COL    14   RATE     0.00000    
 BOUNDARY    105   LAYER   1   ROW     7   COL    15   RATE     0.00000    
 BOUNDARY    106   LAYER   1   ROW     8   COL     1   RATE     0.00000    
 BOUNDARY    107   LAYER   1   ROW     8   COL     2   RATE    -11.3690    
 BOUNDARY    108   LAYER   1   ROW     8   COL     3   RATE   -100.0000    
 BOUNDARY    109   LAYER   1   ROW     8   COL     4   RATE   -100.0000    
 BOUNDARY    110   LAYER   1   ROW     8   COL     5   RATE   -100.0000    
 BOUNDARY    111   LAYER   1   ROW     8   COL     6   RATE   -100.0000    
 BOUNDARY    112   LAYER   1   ROW     8   COL     7   RATE   -100.0000    
 BOUNDARY    113   LAYER   1   ROW     8   COL     8   RATE   -100.0000    
 BOUNDARY    114   LAYER   1   ROW     8   COL     9   RATE   -100.0000    
 BOUNDARY    115   LAYER   1   ROW     8   COL    10   RATE   -100.0000    
 BOUNDARY    116   LAYER   1   ROW     8   COL    11   RATE   -100.0000    
 BOUNDARY    117   LAYER   1   ROW     8   COL    12   RATE    -27.1828    
 BOUNDARY    118   LAYER   1   ROW     8   COL    13   RATE    -3.52966    
 BOUNDARY    119   LAYER   1   ROW     8   COL    14   RATE     0.00000    
 BOUNDARY    120   LAYER   1   ROW     8   COL    15   RATE     0.00000    
 BOUNDARY    121   LAYER   1   ROW     9   COL     1   RATE    -18.9502    
 BOUNDARY    122   LAYER   1   ROW     9   COL     2   RATE    -61.0733    
 BOUNDARY    123   LAYER   1   ROW     9   COL     3   RATE   -100.0000    
 BOUNDARY    124   LAYER   1   ROW     9   COL     4   RATE   -100.0000    
 BOUNDARY    125   LAYER   1   ROW     9   COL     5   RATE   -100.0000    
 BOUNDARY    126   LAYER   1   ROW     9   COL     6   RATE   -100.0000    
 BOUNDARY    127   LAYER   1   ROW     9   COL     7   RATE   -100.0000    
 BOUNDARY    128   LAYER   1   ROW     9   COL     8   RATE   -100.0000    
 BOUNDARY    129   LAYER   1   ROW     9   COL     9   RATE   -100.0000    
 BOUNDARY    130   LAYER   1   ROW     9   COL    10   RATE   -100.0000    
 BOUNDARY    131   LAYER   1   ROW     9   COL    11   RATE   -100.0000    
 BOUNDARY    132   LAYER   1   ROW     9   COL    12   RATE    -28.2819    
 BOUNDARY    133   LAYER   1   ROW     9   COL    13   RATE    -4.35374    
 BOUNDARY    134   LAYER   1   ROW     9   COL    14   RATE     0.00000    
 BOUNDARY    135   LAYER   1   ROW     9   COL    15   RATE     0.00000    
 BOUNDARY    136   LAYER   1   ROW    10   COL     1   RATE    -69.2870    
 BOUNDARY    137   LAYER   1   ROW    10   COL     2   RATE   -100.0000    
 BOUNDARY    138   LAYER   1   ROW    10   COL     3   RATE   -100.0000    
 BOUNDARY    139   LAYER   1   ROW    10   COL     4   RATE   -100.0000    
 BOUNDARY    140   LAYER   1   ROW    10   COL     5   RATE   -100.0000    
 BOUNDARY    141   LAYER   1   ROW    10   COL     6   RATE   -100.0000    
 BOUNDARY    142   LAYER   1   ROW    10   COL     7   RATE   -100.0000    
 BOUNDARY    143   LAYER   1   ROW    10   COL     8   RATE   -100.0000    
 BOUNDARY    144   LAYER   1   ROW    10   COL     9   RATE   -100.0000    
 BOUNDARY    145   LAYER   1   ROW    10   COL    10   RATE   -100.0000    
 BOUNDARY    146   LAYER   1   ROW    10   COL    11   RATE   -100.0000    
 BOUNDARY    147   LAYER   1   ROW    10   COL    12   RATE    -29.0777    
 BOUNDARY    148   LAYER   1   ROW    10   COL    13   RATE    -4.88238    
 BOUNDARY    149   LAYER   1   ROW    10   COL    14   RATE     0.00000    
 BOUNDARY    150   LAYER   1   ROW    10   COL    15   RATE     0.00000    

 HEAD WILL BE SAVED ON UNIT 1017 AT END OF TIME STEP    6, STRESS PERIOD    3
WEL   no.    2 value from time series:   0.0000     for time:  38.00     to  39.00    
WEL   no.    3 value from time series:   0.0000     for time:  38.00     to  39.00    
RIV   no.    1 value from time series:   101.00     for time:  38.00     to  39.00    
RIV   no.    2 value from time series:   101.00     for time:  38.00     to  39.00    
RIV   no.    3 value from time series:   111.50     for time:  38.00     to  39.00    
RIV   no.    4 value from time series:   111.50     for time:  38.00     to  39.00    
RIV   no.    5 value from time series:   115.10     for time:  38.00     to  39.00    
RIV   no.    6 value from time series:   115.10     for time:  38.00     to  39.00    
RIV   no.    7 value from time series:   104.00     for time:  38.00     to  39.00    
RIV   no.    8 value from time series:   104.00     for time:  38.00     to  39.00    
RIV   no.    9 value from time series:   113.50     for time:  38.00     to  39.00    
RIV   no.   10 value from time series:   113.50     for time:  38.00     to  39.00    
WEL   no.    2 value from time series:   0.0000     for time:  38.00     to  39.00    
WEL   no.    3 value from time series:   0.0000     for time:  38.00     to  39.00    
RIV   no.    1 value from time series:   101.00     for time:  38.00     to  39.00    
RIV   no.    2 value from time series:   101.00     for time:  38.00     to  39.00    
RIV   no.    3 value from time series:   111.50     for time:  38.00     to  39.00    
RIV   no.    4 value from time series:   111.50     for time:  38.00     to  39.00    
RIV   no.    5 value from time series:   115.10     for time:  38.00     to  39.00    
RIV   no.    6 value from time series:   115.10     for time:  38.00     to  39.00    
RIV   no.    7 value from time series:   104.00     for time:  38.00     to  39.00    
RIV   no.    8 value from time series:   104.00     for time:  38.00     to  39.00    
RIV   no.    9 value from time series:   113.50     for time:  38.00     to  39.00    
RIV   no.   10 value from time series:   113.50     for time:  38.00     to  39.00    

 OUTPUT CONTROL FOR STRESS PERIOD    3   TIME STEP    7
    SAVE BUDGET
    SAVE HEAD
    SAVE HEAD FOR ALL LAYERS
 UBDSV1 SAVING          STORAGE ON UNIT   1016 AT TIME STEP      7, STRESS PERIOD      3
 UBDSV1 SAVING FLOW RIGHT FACE  ON UNIT   1016 AT TIME STEP      7, STRESS PERIOD      3
 UBDSV1 SAVING FLOW FRONT FACE  ON UNIT   1016 AT TIME STEP      7, STRESS PERIOD      3
 UBDSV1 SAVING FLOW LOWER FACE  ON UNIT   1016 AT TIME STEP      7, STRESS PERIOD      3
 UBDSV4 SAVING WELLS NEAR RIVER ON UNIT   1016 AT TIME STEP      7, STRESS PERIOD      3

 WELLS NEAR RIVER   PERIOD  3   STEP  7
 BOUNDARY      1   LAYER   1   ROW     2   COL     3   RATE    -50.0000    
 BOUNDARY      2   LAYER   2   ROW     3   COL     4   RATE     0.00000      WELL_1
 BOUNDARY      3   LAYER   2   ROW     8   COL     4   RATE     0.00000      WELL_2
 UBDSV4 SAVING RIVER            ON UNIT   1016 AT TIME STEP      7, STRESS PERIOD      3

 RIVER              PERIOD  3   STEP  7
 BOUNDARY      1   LAYER   1   ROW     1   COL    15   RATE    -4848.01    
 BOUNDARY      2   LAYER   1   ROW     2   COL    15   RATE    -5955.05      RIV2
 BOUNDARY      3   LAYER   1   ROW     3   COL    15   RATE    -2175.29      RIV3
 BOUNDARY      4   LAYER   1   ROW     4   COL    15   RATE    -3631.58    
 BOUNDARY      5   LAYER   1   ROW     5   COL    15   RATE    -2276.73    
 BOUNDARY      6   LAYER   1   ROW     6   COL    15   RATE    -1633.47    
 BOUNDARY      7   LAYER   1   ROW     7   COL    15   RATE    -6124.50      RIVX
 BOUNDARY      8   LAYER   1   ROW     8   COL    15   RATE    -5955.45      RIVX
 BOUNDARY      9   LAYER   1   ROW     9   COL    15   RATE    -2133.81      RIVX
 BOUNDARY     10   LAYER   1   ROW    10   COL    15   RATE    -3022.13    

 GHB LAKES          PERIOD  3   STEP  7
 BOUNDARY      1   LAYER   1   ROW     3   COL     1   RATE    -14475.6    
 BOUNDARY      2   LAYER   1   ROW     7   COL     1   RATE    -1846.29      GHB2_UPPER
 BOUNDARY      3   LAYER   1   ROW     7   COL     1   RATE    -13236.9      GHB2_LOWER
 UBDSV4 SAVING RECHARGE         ON UNIT   1016 AT TIME STEP      7, STRESS PERIOD      3

 RECHARGE           PERIOD  3   STEP  7
 BOUNDARY      1   LAYER   1   ROW     1   COL     1   RATE     580.208    
 BOUNDARY      2   LAYER   1   ROW     1   COL     2   RATE     580.208    
 BOUNDARY      3   LAYER   1   ROW     1   COL     3   RATE     580.208    
 BOUNDARY      4   LAYER   1   ROW     1   COL     4   RATE     580.208    
 BOUNDARY      5   LAYER   1   ROW     1   COL     5   RATE     580.208    
 BOUNDARY      6   LAYER   1   ROW     1   COL     6   RATE     580.208    
 BOUNDARY      7   LAYER   1   ROW     1   COL     7   RATE     580.208    
 BOUNDARY      8   LAYER   1   ROW     1   COL     8   RATE     580.208    
 BOUNDARY      9   LAYER   1   ROW     1   COL     9   RATE     580.208    
 BOUNDARY     10   LAYER   1   ROW     1   COL    10   RATE     580.208    
 BOUNDARY     11   LAYER   1   ROW     1   COL    11   RATE     580.208    
 BOUNDARY     12   LAYER   1   ROW     1   COL    12   RATE     580.208    
 BOUNDARY     13   LAYER   1   ROW     1   COL    13   RATE     580.208    
 BOUNDARY     14   LAYER   1   ROW     1   COL    14   RATE     580.208    
 BOUNDARY     15   LAYER   1   ROW     1   COL    15   RATE     580.208    
 BOUNDARY     16   LAYER   1   ROW     2   COL     1   RATE     580.208    
 BOUNDARY     17   LAYER   1   ROW     2   COL     2   RATE     580.208    
 BOUNDARY     18   LAYER   1   ROW     2   COL     3   RATE     580.208    
 BOUNDARY     19   LAYER   1   ROW     2   COL     4   RATE     580.208    
 BOUNDARY     20   LAYER   1   ROW     2   COL     5   RATE     580.208    
 BOUNDARY     21   LAYER   1   ROW     2   COL     6   RATE     580.208    
 BOUNDARY     22   LAYER   1   ROW     2   COL     7   RATE     580.208    
 BOUNDARY     23   LAYER   1   ROW     2   COL     8   RATE     580.208    
 BOUNDARY     24   LAYER   1   ROW     2   COL     9   RATE     580.208    
 BOUNDARY     25   LAYER   1   ROW     2   COL    10   RATE     580.208    
 BOUNDARY     26   LAYER   1   ROW     2   COL    11   RATE     580.208    
 BOUNDARY     27   LAYER   1   ROW     2   COL    12   RATE     580.208    
 BOUNDARY     28   LAYER   1   ROW     2   COL    13   RATE     580.208    
 BOUNDARY     29   LAYER   1   ROW     2   COL    14   RATE     580.208    
 BOUNDARY     30   LAYER   1   ROW     2   COL    15   RATE     580.208    
 BOUNDARY     31   LAYER   1   ROW     3   COL     1   RATE     580.208    
 BOUNDARY     32   LAYER   1   ROW     3   COL     2   RATE     580.208    
 BOUNDARY     33   LAYER   1   ROW     3   COL     3   RATE     580.208    
 BOUNDARY     34   LAYER   1   ROW     3   COL     4   RATE     580.208    
 BOUNDARY     35   LAYER   1   ROW     3   COL     5   RATE     580.208    
 BOUNDARY     36   LAYER   1   ROW     3   COL     6   RATE     580.208    
 BOUNDARY     37   LAYER   1   ROW     3   COL     7   RATE     580.208    
 BOUNDARY     38   LAYER   1   ROW     3   COL     8   RATE     580.208    
 BOUNDARY     39   LAYER   1   ROW     3   COL     9   RATE     580.208    
 BOUNDARY     40   LAYER   1   ROW     3   COL    10   RATE     580.208    
 BOUNDARY     41   LAYER   1   ROW     3   COL    11   RATE     580.208    
 BOUNDARY     42   LAYER   1   ROW     3   COL    12   RATE     580.208    
 BOUNDARY     43   LAYER   1   ROW     3   COL    13   RATE     580.208    
 BOUNDARY     44   LAYER   1   ROW     3   COL    14   RATE     580.208    
 BOUNDARY     45   LAYER   1   ROW     3   COL    15   RATE     580.208    
 BOUNDARY     46   LAYER   1   ROW     4   COL     1   RATE     580.208    
 BOUNDARY     47   LAYER   1   ROW     4   COL     2   RATE     580.208    
 BOUNDARY     48   LAYER   1   ROW     4   COL     3   RATE     580.208    
 BOUNDARY     49   LAYER   1   ROW     4   COL     4   RATE     580.208    
 BOUNDARY     50   LAYER   1   ROW     4   COL     5   RATE     580.208    
 BOUNDARY     51   LAYER   1   ROW     4   COL     6   RATE     580.208    
 BOUNDARY     52   LAYER   1   ROW     4   COL     7   RATE     580.208    
 BOUNDARY     53   LAYER   1   ROW     4   COL     8   RATE     580.208    
 BOUNDARY     54   LAYER   1   ROW     4   COL     9   RATE     580.208    
 BOUNDARY     55   LAYER   1   ROW     4   COL    10   RATE     580.208    
 BOUNDARY     56   LAYER   1   ROW     4   COL    11   RATE     580.208    
 BOUNDARY     57   LAYER   1   ROW     4   COL    12   RATE     580.208    
 BOUNDARY     58   LAYER   1   ROW     4   COL    13   RATE     580.208    
 BOUNDARY     59   LAYER   1   ROW     4   COL    14   RATE     580.208    
 BOUNDARY     60   LAYER   1   ROW     4   COL    15   RATE     580.208    
 BOUNDARY     61   LAYER   1   ROW     5   COL     1   RATE     580.208    
 BOUNDARY     62   LAYER   1   ROW     5   COL     2   RATE     580.208    
 BOUNDARY     63   LAYER   1   ROW     5   COL     3   RATE     580.208    
 BOUNDARY     64   LAYER   1   ROW     5   COL     4   RATE     580.208    
 BOUNDARY     65   LAYER   1   ROW     5   COL     5   RATE     580.208    
 BOUNDARY     66   LAYER   1   ROW     5   COL     6   RATE     580.208    
 BOUNDARY     67   LAYER   1   ROW     5   COL     7   RATE     580.208    
 BOUNDARY     68   LAYER   1   ROW     5   COL     8   RATE     580.208    
 BOUNDARY     69   LAYER   1   ROW     5   COL     9   RATE     580.208    
 BOUNDARY     70   LAYER   1   ROW     5   COL    10   RATE     580.208    
 BOUNDARY     71   LAYER   1   ROW     5   COL    11   RATE     580.208    
 BOUNDARY     72   LAYER   1   ROW     5   COL    12   RATE     580.208    
 BOUNDARY     73   LAYER   1   ROW     5   COL    13   RATE     580.208    
 BOUNDARY     74   LAYER   1   ROW     5   COL    14   RATE     580.208    
 BOUNDARY     75   LAYER   1   ROW     5   COL    15   RATE     580.208    
 BOUNDARY     76   LAYER   1   ROW     6   COL     1   RATE     580.208    
 BOUNDARY     77   LAYER   1   ROW     6   COL     2   RATE     580.208    
 BOUNDARY     78   LAYER   1   ROW     6   COL     3   RATE     580.208    
 BOUNDARY     79   LAYER   1   ROW     6   COL     4   RATE     580.208    
 BOUNDARY     80   LAYER   1   ROW     6   COL     5   RATE     580.208    
 BOUNDARY     81   LAYER   1   ROW     6   COL     6   RATE     580.208    
 BOUNDARY     82   LAYER   1   ROW     6   COL     7   RATE     580.208    
 BOUNDARY     83   LAYER   1   ROW     6   COL     8   RATE     580.208    
 BOUNDARY     84   LAYER   1   ROW     6   COL     9   RATE     580.208    
 BOUNDARY     85   LAYER   1   ROW     6   COL    10   RATE     580.208    
 BOUNDARY     86   LAYER   1   ROW     6   COL    11   RATE     580.208    
 BOUNDARY     87   LAYER   1   ROW     6   COL    12   RATE     580.208    
 BOUNDARY     88   LAYER   1   ROW     6   COL    13   RATE     580.208    
 BOUNDARY     89   LAYER   1   ROW     6   COL    14   RATE     580.208    
 BOUNDARY     90   LAYER   1   ROW     6   COL    15   RATE     580.208    
 BOUNDARY     91   LAYER   1   ROW     7   COL     1   RATE     580.208    
 BOUNDARY     92   LAYER   1   ROW     7   COL     2   RATE     580.208    
 BOUNDARY     93   LAYER   1   ROW     7   COL     3   RATE     580.208    
 BOUNDARY     94   LAYER   1   ROW     7   COL     4   RATE     580.208    
 BOUNDARY     95   LAYER   1   ROW     7   COL     5   RATE     580.208    
 BOUNDARY     96   LAYER   1   ROW     7   COL     6   RATE     580.208    
 BOUNDARY     97   LAYER   1   ROW     7   COL     7   RATE     580.208    
 BOUNDARY     98   LAYER   1   ROW     7   COL     8   RATE     580.208    
 BOUNDARY     99   LAYER   1   ROW     7   COL     9   RATE     580.208    
 BOUNDARY    100   LAYER   1   ROW     7   COL    10   RATE     580.208    
 BOUNDARY    101   LAYER   1   ROW     7   COL    11   RATE     580.208    
 BOUNDARY    102   LAYER   1   ROW     7   COL    12   RATE     580.208    
 BOUNDARY    103   LAYER   1   ROW     7   COL    13   RATE     580.208    
 BOUNDARY    104   LAYER   1   ROW     7   COL    14   RATE     580.208    
 BOUNDARY    105   LAYER   1   ROW     7   COL    15   RATE     580.208    
 BOUNDARY    106   LAYER   1   ROW     8   COL     1   RATE     580.208    
 BOUNDARY    107   LAYER   1   ROW     8   COL     2   RATE     580.208    
 BOUNDARY    108   LAYER   1   ROW     8   COL     3   RATE     580.208    
 BOUNDARY    109   LAYER   1   ROW     8   COL     4   RATE     580.208    
 BOUNDARY    110   LAYER   1   ROW     8   COL     5   RATE     580.208    
 BOUNDARY    111   LAYER   1   ROW     8   COL     6   RATE     580.208    
 BOUNDARY    112   LAYER   1   ROW     8   COL     7   RATE     580.208    
 BOUNDARY    113   LAYER   1   ROW     8   COL     8   RATE     580.208    
 BOUNDARY    114   LAYER   1   ROW     8   COL     9   RATE     580.208    
 BOUNDARY    115   LAYER   1   ROW     8   COL    10   RATE     580.208    
 BOUNDARY    116   LAYER   1   ROW     8   COL    11   RATE     580.208    
 BOUNDARY    117   LAYER   1   ROW     8   COL    12   RATE     580.208    
 BOUNDARY    118   LAYER   1   ROW     8   COL    13   RATE     580.208    
 BOUNDARY    119   LAYER   1   ROW     8   COL    14   RATE     580.208    
 BOUNDARY    120   LAYER   1   ROW     8   COL    15   RATE     580.208    
 BOUNDARY    121   LAYER   1   ROW     9   COL     1   RATE     580.208    
 BOUNDARY    122   LAYER   1   ROW     9   COL     2   RATE     580.208    
 BOUNDARY    123   LAYER   1   ROW     9   COL     3   RATE     580.208    
 BOUNDARY    124   LAYER   1   ROW     9   COL     4   RATE     580.208    
 BOUNDARY    125   LAYER   1   ROW     9   COL     5   RATE     580.208    
 BOUNDARY    126   LAYER   1   ROW     9   COL     6   RATE     580.208    
 BOUNDARY    127   LAYER   1   ROW     9   COL     7   RATE     580.208    
 BOUNDARY    128   LAYER   1   ROW     9   COL     8   RATE     580.208    
 BOUNDARY    129   LAYER   1   ROW     9   COL     9   RATE     580.208    
 BOUNDARY    130   LAYER   1   ROW     9   COL    10   RATE     580.208    
 BOUNDARY    131   LAYER   1   ROW     9   COL    11   RATE     580.208    
 BOUNDARY    132   LAYER   1   ROW     9   COL    12   RATE     580.208    
 BOUNDARY    133   LAYER   1   ROW     9   COL    13   RATE     580.208    
 BOUNDARY    134   LAYER   1   ROW     9   COL    14   RATE     580.208    
 BOUNDARY    135   LAYER   1   ROW     9   COL    15   RATE     580.208    
 BOUNDARY    136   LAYER   1   ROW    10   COL     1   RATE     580.208    
 BOUNDARY    137   LAYER   1   ROW    10   COL     2   RATE     580.208    
 BOUNDARY    138   LAYER   1   ROW    10   COL     3   RATE     580.208    
 BOUNDARY    139   LAYER   1   ROW    10   COL     4   RATE     580.208    
 BOUNDARY    140   LAYER   1   ROW    10   COL     5   RATE     580.208    
 BOUNDARY    141   LAYER   1   ROW    10   COL     6   RATE     580.208    
 BOUNDARY    142   LAYER   1   ROW    10   COL     7   RATE     580.208    
 BOUNDARY    143   LAYER   1   ROW    10   COL     8   RATE     580.208    
 BOUNDARY    144   LAYER   1   ROW    10   COL     9   RATE     580.208    
 BOUNDARY    145   LAYER   1   ROW    10   COL    10   RATE     580.208    
 BOUNDARY    146   LAYER   1   ROW    10   COL    11   RATE     580.208    
 BOUNDARY    147   LAYER   1   ROW    10   COL    12   RATE     580.208    
 BOUNDARY    148   LAYER   1   ROW    10   COL    13   RATE     580.208    
 BOUNDARY    149   LAYER   1   ROW    10   COL    14   RATE     580.208    
 BOUNDARY    150   LAYER   1   ROW    10   COL    15   RATE     580.208    
 UBDSV4 SAVING ET SEGS          ON UNIT   1016 AT TIME STEP      7, STRESS PERIOD      3

 ET SEGS            PERIOD  3   STEP  7
 BOUNDARY      1   LAYER   1   ROW     1   COL     1   RATE    -2.18624    
 BOUNDARY      2   LAYER   1   ROW     1   COL     2   RATE    -9.03923    
 BOUNDARY      3   LAYER   1   ROW     1   COL     3   RATE    -49.7344    
 BOUNDARY      4   LAYER   1   ROW     1   COL     4   RATE   -100.0000    
 BOUNDARY      5   LAYER   1   ROW     1   COL     5   RATE   -100.0000    
 BOUNDARY      6   LAYER   1   ROW     1   COL     6   RATE   -100.0000    
 BOUNDARY      7   LAYER   1   ROW     1   COL     7   RATE   -100.0000    
 BOUNDARY      8   LAYER   1   ROW     1   COL     8   RATE   -100.0000    
 BOUNDARY      9   LAYER   1   ROW     1   COL     9   RATE   -100.0000    
 BOUNDARY     10   LAYER   1   ROW     1   COL    10   RATE   -100.0000    
 BOUNDARY     11   LAYER   1   ROW     1   COL    11   RATE   -100.0000    
 BOUNDARY     12   LAYER   1   ROW     1   COL    12   RATE    -16.9173    
 BOUNDARY     13   LAYER   1   ROW     1   COL    13   RATE     0.00000    
 BOUNDARY     14   LAYER   1   ROW     1   COL    14   RATE     0.00000    
 BOUNDARY     15   LAYER   1   ROW     1   COL    15   RATE     0.00000    
 BOUNDARY     16   LAYER   1   ROW     2   COL     1   RATE     0.00000    
 BOUNDARY     17   LAYER   1   ROW     2   COL     2   RATE    -4.52199    
 BOUNDARY     18   LAYER   1   ROW     2   COL     3   RATE    -28.3180    
 BOUNDARY     19   LAYER   1   ROW     2   COL     4   RATE   -100.0000    
 BOUNDARY     20   LAYER   1   ROW     2   COL     5   RATE   -100.0000    
 BOUNDARY     21   LAYER   1   ROW     2   COL     6   RATE   -100.0000    
 BOUNDARY     22   LAYER   1   ROW     2   COL     7   RATE   -100.0000    
 BOUNDARY     23   LAYER   1   ROW     2   COL     8   RATE   -100.0000    
 BOUNDARY     24   LAYER   1   ROW     2   COL     9   RATE   -100.0000    
 BOUNDARY     25   LAYER   1   ROW     2   COL    10   RATE   -100.0000    
 BOUNDARY     26   LAYER   1   ROW     2   COL    11   RATE   -100.0000    
 BOUNDARY     27   LAYER   1   ROW     2   COL    12   RATE    -18.6568    
 BOUNDARY     28   LAYER   1   ROW     2   COL    13   RATE   -0.147716    
 BOUNDARY     29   LAYER   1   ROW     2   COL    14   RATE     0.00000    
 BOUNDARY     30   LAYER   1   ROW     2   COL    15   RATE     0.00000    
 BOUNDARY     31   LAYER   1   ROW     3   COL     1   RATE     0.00000    
 BOUNDARY     32   LAYER   1   ROW     3   COL     2   RATE     0.00000    
 BOUNDARY     33   LAYER   1   ROW     3   COL     3   RATE    -22.4006    
 BOUNDARY     34   LAYER   1   ROW     3   COL     4   RATE   -100.0000    
 BOUNDARY     35   LAYER   1   ROW     3   COL     5   RATE   -100.0000    
 BOUNDARY     36   LAYER   1   ROW     3   COL     6   RATE   -100.0000    
 BOUNDARY     37   LAYER   1   ROW     3   COL     7   RATE   -100.0000    
 BOUNDARY     38   LAYER   1   ROW     3   COL     8   RATE   -100.0000    
 BOUNDARY     39   LAYER   1   ROW     3   COL     9   RATE   -100.0000    
 BOUNDARY     40   LAYER   1   ROW     3   COL    10   RATE   -100.0000    
 BOUNDARY     41   LAYER   1   ROW     3   COL    11   RATE   -100.0000    
 BOUNDARY     42   LAYER   1   ROW     3   COL    12   RATE    -21.5908    
 BOUNDARY     43   LAYER   1   ROW     3   COL    13   RATE    -1.93519    
 BOUNDARY     44   LAYER   1   ROW     3   COL    14   RATE     0.00000    
 BOUNDARY     45   LAYER   1   ROW     3   COL    15   RATE     0.00000    
 BOUNDARY     46   LAYER   1   ROW     4   COL     1   RATE     0.00000    
 BOUNDARY     47   LAYER   1   ROW     4   COL     2   RATE    -3.00910    
 BOUNDARY     48   LAYER   1   ROW     4   COL     3   RATE    -26.2705    
 BOUNDARY     49   LAYER   1   ROW     4   COL     4   RATE   -100.0000    
 BOUNDARY     50   LAYER   1   ROW     4   COL     5   RATE   -100.0000    
 BOUNDARY     51   LAYER   1   ROW     4   COL     6   RATE   -100.0000    
 BOUNDARY     52   LAYER   1   ROW     4   COL     7   RATE   -100.0000    
 BOUNDARY     53   LAYER   1   ROW     4   COL     8   RATE   -100.0000    
 BOUNDARY     54   LAYER   1   ROW     4   COL     9   RATE   -100.0000    
 BOUNDARY     55   LAYER   1   ROW     4   COL    10   RATE   -100.0000    
 BOUNDARY     56   LAYER   1   ROW     4   COL    11   RATE   -100.0000    
 BOUNDARY     57   LAYER   1   ROW     4   COL    12   RATE    -24.3903    
 BOUNDARY     58   LAYER   1   ROW     4   COL    13   RATE    -3.39683    
 BOUNDARY     59   LAYER   1   ROW     4   COL    14   RATE     0.00000    
 BOUNDARY     60   LAYER   1   ROW     4   COL    15   RATE     0.00000    
 BOUNDARY     61   LAYER   1   ROW     5   COL     1   RATE     0.00000    
 BOUNDARY     62   LAYER   1   ROW     5   COL     2   RATE    -5.98312    
 BOUNDARY     63   LAYER   1   ROW     5   COL     3   RATE    -31.3480    
 BOUNDARY     64   LAYER   1   ROW     5   COL     4   RATE   -100.0000    
 BOUNDARY     65   LAYER   1   ROW     5   COL     5   RATE   -100.0000    
 BOUNDARY     66   LAYER   1   ROW     5   COL     6   RATE   -100.0000    
 BOUNDARY     67   LAYER   1   ROW     5   COL     7   RATE   -100.0000    
 BOUNDARY     68   LAYER   1   ROW     5   COL     8   RATE   -100.0000    
 BOUNDARY     69   LAYER   1   ROW     5   COL     9   RATE   -100.0000    
 BOUNDARY     70   LAYER   1   ROW     5   COL    10   RATE   -100.0000    
 BOUNDARY     71   LAYER   1   ROW     5   COL    11   RATE   -100.0000    
 BOUNDARY     72   LAYER   1   ROW     5   COL    12   RATE    -26.3274    
 BOUNDARY     73   LAYER   1   ROW     5   COL    13   RATE    -4.30263    
 BOUNDARY     74   LAYER   1   ROW     5   COL    14   RATE     0.00000    
 BOUNDARY     75   LAYER   1   ROW     5   COL    15   RATE     0.00000    
 BOUNDARY     76   LAYER   1   ROW     6   COL     1   RATE     0.00000    
 BOUNDARY     77   LAYER   1   ROW     6   COL     2   RATE    -4.55304    
 BOUNDARY     78   LAYER   1   ROW     6   COL     3   RATE    -35.2033    
 BOUNDARY     79   LAYER   1   ROW     6   COL     4   RATE   -100.0000    
 BOUNDARY     80   LAYER   1   ROW     6   COL     5   RATE   -100.0000    
 BOUNDARY     81   LAYER   1   ROW     6   COL     6   RATE   -100.0000    
 BOUNDARY     82   LAYER   1   ROW     6   COL     7   RATE   -100.0000    
 BOUNDARY     83   LAYER   1   ROW     6   COL     8   RATE   -100.0000    
 BOUNDARY     84   LAYER   1   ROW     6   COL     9   RATE   -100.0000    
 BOUNDARY     85   LAYER   1   ROW     6   COL    10   RATE   -100.0000    
 BOUNDARY     86   LAYER   1   ROW     6   COL    11   RATE   -100.0000    
 BOUNDARY     87   LAYER   1   ROW     6   COL    12   RATE    -26.9766    
 BOUNDARY     88   LAYER   1   ROW     6   COL    13   RATE    -4.26103    
 BOUNDARY     89   LAYER   1   ROW     6   COL    14   RATE     0.00000    
 BOUNDARY     90   LAYER   1   ROW     6   COL    15   RATE     0.00000    
 BOUNDARY     91   LAYER   1   ROW     7   COL     1   RATE     0.00000    
 BOUNDARY     92   LAYER   1   ROW     7   COL     2   RATE    -1.05345    
 BOUNDARY     93   LAYER   1   ROW     7   COL     3   RATE    -42.0772    
 BOUNDARY     94   LAYER   1   ROW     7   COL     4   RATE   -100.0000    
 BOUNDARY     95   LAYER   1   ROW     7   COL     5   RATE   -100.0000    
 BOUNDARY     96   LAYER   1   ROW     7   COL     6   RATE   -100.0000    
 BOUNDARY     97   LAYER   1   ROW     7   COL     7   RATE   -100.0000    
 BOUNDARY     98   LAYER   1   ROW     7   COL     8   RATE   -100.0000    
 BOUNDARY     99   LAYER   1   ROW     7   COL     9   RATE   -100.0000    
 BOUNDARY    100   LAYER   1   ROW     7   COL    10   RATE   -100.0000    
 BOUNDARY    101   LAYER   1   ROW     7   COL    11   RATE   -100.0000    
 BOUNDARY    102   LAYER   1   ROW     7   COL    12   RATE    -26.8157    
 BOUNDARY    103   LAYER   1   ROW     7   COL    13   RATE    -3.53115    
 BOUNDARY    104   LAYER   1   ROW     7   COL    14   RATE     0.00000    
 BOUNDARY    105   LAYER   1   ROW     7   COL    15   RATE     0.00000    
 BOUNDARY    106   LAYER   1   ROW     8   COL     1   RATE     0.00000    
 BOUNDARY    107   LAYER   1   ROW     8   COL     2   RATE    -11.3892    
 BOUNDARY    108   LAYER   1   ROW     8   COL     3   RATE   -100.0000    
 BOUNDARY    109   LAYER   1   ROW     8   COL     4   RATE   -100.0000    
 BOUNDARY    110   LAYER   1   ROW     8   COL     5   RATE   -100.0000    
 BOUNDARY    111   LAYER   1   ROW     8   COL     6   RATE   -100.0000    
 BOUNDARY    112   LAYER   1   ROW     8   COL     7   RATE   -100.0000    
 BOUNDARY    113   LAYER   1   ROW     8   COL     8   RATE   -100.0000    
 BOUNDARY    114   LAYER   1   ROW     8   COL     9   RATE   -100.0000    
 BOUNDARY    115   LAYER   1   ROW     8   COL    10   RATE   -100.0000    
 BOUNDARY    116   LAYER   1   ROW     8   COL    11   RATE   -100.0000    
 BOUNDARY    117   LAYER   1   ROW     8   COL    12   RATE    -27.2045    
 BOUNDARY    118   LAYER   1   ROW     8   COL    13   RATE    -3.53668    
 BOUNDARY    119   LAYER   1   ROW     8   COL    14   RATE     0.00000    
 BOUNDARY    120   LAYER   1   ROW     8   COL    15   RATE     0.00000    
 BOUNDARY    121   LAYER   1   ROW     9   COL     1   RATE    -18.9706    
 BOUNDARY    122   LAYER   1   ROW     9   COL     2   RATE    -61.1807    
 BOUNDARY    123   LAYER   1   ROW     9   COL     3   RATE   -100.0000    
 BOUNDARY    124   LAYER   1   ROW     9   COL     4   RATE   -100.0000    
 BOUNDARY    125   LAYER   1   ROW     9   COL     5   RATE   -100.0000    
 BOUNDARY    126   LAYER   1   ROW     9   COL     6   RATE   -100.0000    
 BOUNDARY    127   LAYER   1   ROW     9   COL     7   RATE   -100.0000    
 BOUNDARY    128   LAYER   1   ROW     9   COL     8   RATE   -100.0000    
 BOUNDARY    129   LAYER   1   ROW     9   COL     9   RATE   -100.0000    
 BOUNDARY    130   LAYER   1   ROW     9   COL    10   RATE   -100.0000    
 BOUNDARY    131   LAYER   1   ROW     9   COL    11   RATE   -100.0000    
 BOUNDARY    132   LAYER   1   ROW     9   COL    12   RATE    -28.3040    
 BOUNDARY    133   LAYER   1   ROW     9   COL    13   RATE    -4.36142    
 BOUNDARY    134   LAYER   1   ROW     9   COL    14   RATE     0.00000    
 BOUNDARY    135   LAYER   1   ROW     9   COL    15   RATE     0.00000    
 BOUNDARY    136   LAYER   1   ROW    10   COL     1   RATE    -69.3943    
 BOUNDARY    137   LAYER   1   ROW    10   COL     2   RATE   -100.0000    
 BOUNDARY    138   LAYER   1   ROW    10   COL     3   RATE   -100.0000    
 BOUNDARY    139   LAYER   1   ROW    10   COL     4   RATE   -100.0000    
 BOUNDARY    140   LAYER   1   ROW    10   COL     5   RATE   -100.0000    
 BOUNDARY    141   LAYER   1   ROW    10   COL     6   RATE   -100.0000    
 BOUNDARY    142   LAYER   1   ROW    10   COL     7   RATE   -100.0000    
 BOUNDARY    143   LAYER   1   ROW    10   COL     8   RATE   -100.0000    
 BOUNDARY    144   LAYER   1   ROW    10   COL     9   RATE   -100.0000    
 BOUNDARY    145   LAYER   1   ROW    10   COL    10   RATE   -100.0000    
 BOUNDARY    146   LAYER   1   ROW    10   COL    11   RATE   -100.0000    
 BOUNDARY    147   LAYER   1   ROW    10   COL    12   RATE    -29.0999    
 BOUNDARY    148   LAYER   1   ROW    10   COL    13   RATE    -4.89033    
 BOUNDARY    149   LAYER   1   ROW    10   COL    14   RATE     0.00000    
 BOUNDARY    150   LAYER   1   ROW    10   COL    15   RATE     0.00000    

 HEAD WILL BE SAVED ON UNIT 1017 AT END OF TIME STEP    7, STRESS PERIOD    3
WEL   no.    2 value from time series:   0.0000     for time:  39.00     to  40.00    
WEL   no.    3 value from time series:   0.0000     for time:  39.00     to  40.00    
RIV   no.    1 value from time series:   101.00     for time:  39.00     to  40.00    
RIV   no.    2 value from time series:   101.00     for time:  39.00     to  40.00    
RIV   no.    3 value from time series:   111.50     for time:  39.00     to  40.00    
RIV   no.    4 value from time series:   111.50     for time:  39.00     to  40.00    
RIV   no.    5 value from time series:   115.10     for time:  39.00     to  40.00    
RIV   no.    6 value from time series:   115.10     for time:  39.00     to  40.00    
RIV   no.    7 value from time series:   104.00     for time:  39.00     to  40.00    
RIV   no.    8 value from time series:   104.00     for time:  39.00     to  40.00    
RIV   no.    9 value from time series:   113.50     for time:  39.00     to  40.00    
RIV   no.   10 value from time series:   113.50     for time:  39.00     to  40.00    
WEL   no.    2 value from time series:   0.0000     for time:  39.00     to  40.00    
WEL   no.    3 value from time series:   0.0000     for time:  39.00     to  40.00    
RIV   no.    1 value from time series:   101.00     for time:  39.00     to  40.00    
RIV   no.    2 value from time series:   101.00     for time:  39.00     to  40.00    
RIV   no.    3 value from time series:   111.50     for time:  39.00     to  40.00    
RIV   no.    4 value from time series:   111.50     for time:  39.00     to  40.00    
RIV   no.    5 value from time series:   115.10     for time:  39.00     to  40.00    
RIV   no.    6 value from time series:   115.10     for time:  39.00     to  40.00    
RIV   no.    7 value from time series:   104.00     for time:  39.00     to  40.00    
RIV   no.    8 value from time series:   104.00     for time:  39.00     to  40.00    
RIV   no.    9 value from time series:   113.50     for time:  39.00     to  40.00    
RIV   no.   10 value from time series:   113.50     for time:  39.00     to  40.00    

 OUTPUT CONTROL FOR STRESS PERIOD    3   TIME STEP    8
    SAVE BUDGET
    SAVE HEAD
    SAVE HEAD FOR ALL LAYERS
 UBDSV1 SAVING          STORAGE ON UNIT   1016 AT TIME STEP      8, STRESS PERIOD      3
 UBDSV1 SAVING FLOW RIGHT FACE  ON UNIT   1016 AT TIME STEP      8, STRESS PERIOD      3
 UBDSV1 SAVING FLOW FRONT FACE  ON UNIT   1016 AT TIME STEP      8, STRESS PERIOD      3
 UBDSV1 SAVING FLOW LOWER FACE  ON UNIT   1016 AT TIME STEP      8, STRESS PERIOD      3
 UBDSV4 SAVING WELLS NEAR RIVER ON UNIT   1016 AT TIME STEP      8, STRESS PERIOD      3

 WELLS NEAR RIVER   PERIOD  3   STEP  8
 BOUNDARY      1   LAYER   1   ROW     2   COL     3   RATE    -50.0000    
 BOUNDARY      2   LAYER   2   ROW     3   COL     4   RATE     0.00000      WELL_1
 BOUNDARY      3   LAYER   2   ROW     8   COL     4   RATE     0.00000      WELL_2
 UBDSV4 SAVING RIVER            ON UNIT   1016 AT TIME STEP      8, STRESS PERIOD      3

 RIVER              PERIOD  3   STEP  8
 BOUNDARY      1   LAYER   1   ROW     1   COL    15   RATE    -4843.64    
 BOUNDARY      2   LAYER   1   ROW     2   COL    15   RATE    -5951.30      RIV2
 BOUNDARY      3   LAYER   1   ROW     3   COL    15   RATE    -2174.29      RIV3
 BOUNDARY      4   LAYER   1   ROW     4   COL    15   RATE    -3630.75    
 BOUNDARY      5   LAYER   1   ROW     5   COL    15   RATE    -2275.67    
 BOUNDARY      6   LAYER   1   ROW     6   COL    15   RATE    -1632.03    
 BOUNDARY      7   LAYER   1   ROW     7   COL    15   RATE    -6122.22      RIVX
 BOUNDARY      8   LAYER   1   ROW     8   COL    15   RATE    -5953.88      RIVX
 BOUNDARY      9   LAYER   1   ROW     9   COL    15   RATE    -2133.84      RIVX
 BOUNDARY     10   LAYER   1   ROW    10   COL    15   RATE    -3022.81    

 GHB LAKES          PERIOD  3   STEP  8
 BOUNDARY      1   LAYER   1   ROW     3   COL     1   RATE    -14477.9    
 BOUNDARY      2   LAYER   1   ROW     7   COL     1   RATE    -1847.71      GHB2_UPPER
 BOUNDARY      3   LAYER   1   ROW     7   COL     1   RATE    -13237.4      GHB2_LOWER
 UBDSV4 SAVING RECHARGE         ON UNIT   1016 AT TIME STEP      8, STRESS PERIOD      3

 RECHARGE           PERIOD  3   STEP  8
 BOUNDARY      1   LAYER   1   ROW     1   COL     1   RATE     582.292    
 BOUNDARY      2   LAYER   1   ROW     1   COL     2   RATE     582.292    
 BOUNDARY      3   LAYER   1   ROW     1   COL     3   RATE     582.292    
 BOUNDARY      4   LAYER   1   ROW     1   COL     4   RATE     582.292    
 BOUNDARY      5   LAYER   1   ROW     1   COL     5   RATE     582.292    
 BOUNDARY      6   LAYER   1   ROW     1   COL     6   RATE     582.292    
 BOUNDARY      7   LAYER   1   ROW     1   COL     7   RATE     582.292    
 BOUNDARY      8   LAYER   1   ROW     1   COL     8   RATE     582.292    
 BOUNDARY      9   LAYER   1   ROW     1   COL     9   RATE     582.292    
 BOUNDARY     10   LAYER   1   ROW     1   COL    10   RATE     582.292    
 BOUNDARY     11   LAYER   1   ROW     1   COL    11   RATE     582.292    
 BOUNDARY     12   LAYER   1   ROW     1   COL    12   RATE     582.292    
 BOUNDARY     13   LAYER   1   ROW     1   COL    13   RATE     582.292    
 BOUNDARY     14   LAYER   1   ROW     1   COL    14   RATE     582.292    
 BOUNDARY     15   LAYER   1   ROW     1   COL    15   RATE     582.292    
 BOUNDARY     16   LAYER   1   ROW     2   COL     1   RATE     582.292    
 BOUNDARY     17   LAYER   1   ROW     2   COL     2   RATE     582.292    
 BOUNDARY     18   LAYER   1   ROW     2   COL     3   RATE     582.292    
 BOUNDARY     19   LAYER   1   ROW     2   COL     4   RATE     582.292    
 BOUNDARY     20   LAYER   1   ROW     2   COL     5   RATE     582.292    
 BOUNDARY     21   LAYER   1   ROW     2   COL     6   RATE     582.292    
 BOUNDARY     22   LAYER   1   ROW     2   COL     7   RATE     582.292    
 BOUNDARY     23   LAYER   1   ROW     2   COL     8   RATE     582.292    
 BOUNDARY     24   LAYER   1   ROW     2   COL     9   RATE     582.292    
 BOUNDARY     25   LAYER   1   ROW     2   COL    10   RATE     582.292    
 BOUNDARY     26   LAYER   1   ROW     2   COL    11   RATE     582.292    
 BOUNDARY     27   LAYER   1   ROW     2   COL    12   RATE     582.292    
 BOUNDARY     28   LAYER   1   ROW     2   COL    13   RATE     582.292    
 BOUNDARY     29   LAYER   1   ROW     2   COL    14   RATE     582.292    
 BOUNDARY     30   LAYER   1   ROW     2   COL    15   RATE     582.292    
 BOUNDARY     31   LAYER   1   ROW     3   COL     1   RATE     582.292    
 BOUNDARY     32   LAYER   1   ROW     3   COL     2   RATE     582.292    
 BOUNDARY     33   LAYER   1   ROW     3   COL     3   RATE     582.292    
 BOUNDARY     34   LAYER   1   ROW     3   COL     4   RATE     582.292    
 BOUNDARY     35   LAYER   1   ROW     3   COL     5   RATE     582.292    
 BOUNDARY     36   LAYER   1   ROW     3   COL     6   RATE     582.292    
 BOUNDARY     37   LAYER   1   ROW     3   COL     7   RATE     582.292    
 BOUNDARY     38   LAYER   1   ROW     3   COL     8   RATE     582.292    
 BOUNDARY     39   LAYER   1   ROW     3   COL     9   RATE     582.292    
 BOUNDARY     40   LAYER   1   ROW     3   COL    10   RATE     582.292    
 BOUNDARY     41   LAYER   1   ROW     3   COL    11   RATE     582.292    
 BOUNDARY     42   LAYER   1   ROW     3   COL    12   RATE     582.292    
 BOUNDARY     43   LAYER   1   ROW     3   COL    13   RATE     582.292    
 BOUNDARY     44   LAYER   1   ROW     3   COL    14   RATE     582.292    
 BOUNDARY     45   LAYER   1   ROW     3   COL    15   RATE     582.292    
 BOUNDARY     46   LAYER   1   ROW     4   COL     1   RATE     582.292    
 BOUNDARY     47   LAYER   1   ROW     4   COL     2   RATE     582.292    
 BOUNDARY     48   LAYER   1   ROW     4   COL     3   RATE     582.292    
 BOUNDARY     49   LAYER   1   ROW     4   COL     4   RATE     582.292    
 BOUNDARY     50   LAYER   1   ROW     4   COL     5   RATE     582.292    
 BOUNDARY     51   LAYER   1   ROW     4   COL     6   RATE     582.292    
 BOUNDARY     52   LAYER   1   ROW     4   COL     7   RATE     582.292    
 BOUNDARY     53   LAYER   1   ROW     4   COL     8   RATE     582.292    
 BOUNDARY     54   LAYER   1   ROW     4   COL     9   RATE     582.292    
 BOUNDARY     55   LAYER   1   ROW     4   COL    10   RATE     582.292    
 BOUNDARY     56   LAYER   1   ROW     4   COL    11   RATE     582.292    
 BOUNDARY     57   LAYER   1   ROW     4   COL    12   RATE     582.292    
 BOUNDARY     58   LAYER   1   ROW     4   COL    13   RATE     582.292    
 BOUNDARY     59   LAYER   1   ROW     4   COL    14   RATE     582.292    
 BOUNDARY     60   LAYER   1   ROW     4   COL    15   RATE     582.292    
 BOUNDARY     61   LAYER   1   ROW     5   COL     1   RATE     582.292    
 BOUNDARY     62   LAYER   1   ROW     5   COL     2   RATE     582.292    
 BOUNDARY     63   LAYER   1   ROW     5   COL     3   RATE     582.292    
 BOUNDARY     64   LAYER   1   ROW     5   COL     4   RATE     582.292    
 BOUNDARY     65   LAYER   1   ROW     5   COL     5   RATE     582.292    
 BOUNDARY     66   LAYER   1   ROW     5   COL     6   RATE     582.292    
 BOUNDARY     67   LAYER   1   ROW     5   COL     7   RATE     582.292    
 BOUNDARY     68   LAYER   1   ROW     5   COL     8   RATE     582.292    
 BOUNDARY     69   LAYER   1   ROW     5   COL     9   RATE     582.292    
 BOUNDARY     70   LAYER   1   ROW     5   COL    10   RATE     582.292    
 BOUNDARY     71   LAYER   1   ROW     5   COL    11   RATE     582.292    
 BOUNDARY     72   LAYER   1   ROW     5   COL    12   RATE     582.292    
 BOUNDARY     73   LAYER   1   ROW     5   COL    13   RATE     582.292    
 BOUNDARY     74   LAYER   1   ROW     5   COL    14   RATE     582.292    
 BOUNDARY     75   LAYER   1   ROW     5   COL    15   RATE     582.292    
 BOUNDARY     76   LAYER   1   ROW     6   COL     1   RATE     582.292    
 BOUNDARY     77   LAYER   1   ROW     6   COL     2   RATE     582.292    
 BOUNDARY     78   LAYER   1   ROW     6   COL     3   RATE     582.292    
 BOUNDARY     79   LAYER   1   ROW     6   COL     4   RATE     582.292    
 BOUNDARY     80   LAYER   1   ROW     6   COL     5   RATE     582.292    
 BOUNDARY     81   LAYER   1   ROW     6   COL     6   RATE     582.292    
 BOUNDARY     82   LAYER   1   ROW     6   COL     7   RATE     582.292    
 BOUNDARY     83   LAYER   1   ROW     6   COL     8   RATE     582.292    
 BOUNDARY     84   LAYER   1   ROW     6   COL     9   RATE     582.292    
 BOUNDARY     85   LAYER   1   ROW     6   COL    10   RATE     582.292    
 BOUNDARY     86   LAYER   1   ROW     6   COL    11   RATE     582.292    
 BOUNDARY     87   LAYER   1   ROW     6   COL    12   RATE     582.292    
 BOUNDARY     88   LAYER   1   ROW     6   COL    13   RATE     582.292    
 BOUNDARY     89   LAYER   1   ROW     6   COL    14   RATE     582.292    
 BOUNDARY     90   LAYER   1   ROW     6   COL    15   RATE     582.292    
 BOUNDARY     91   LAYER   1   ROW     7   COL     1   RATE     582.292    
 BOUNDARY     92   LAYER   1   ROW     7   COL     2   RATE     582.292    
 BOUNDARY     93   LAYER   1   ROW     7   COL     3   RATE     582.292    
 BOUNDARY     94   LAYER   1   ROW     7   COL     4   RATE     582.292    
 BOUNDARY     95   LAYER   1   ROW     7   COL     5   RATE     582.292    
 BOUNDARY     96   LAYER   1   ROW     7   COL     6   RATE     582.292    
 BOUNDARY     97   LAYER   1   ROW     7   COL     7   RATE     582.292    
 BOUNDARY     98   LAYER   1   ROW     7   COL     8   RATE     582.292    
 BOUNDARY     99   LAYER   1   ROW     7   COL     9   RATE     582.292    
 BOUNDARY    100   LAYER   1   ROW     7   COL    10   RATE     582.292    
 BOUNDARY    101   LAYER   1   ROW     7   COL    11   RATE     582.292    
 BOUNDARY    102   LAYER   1   ROW     7   COL    12   RATE     582.292    
 BOUNDARY    103   LAYER   1   ROW     7   COL    13   RATE     582.292    
 BOUNDARY    104   LAYER   1   ROW     7   COL    14   RATE     582.292    
 BOUNDARY    105   LAYER   1   ROW     7   COL    15   RATE     582.292    
 BOUNDARY    106   LAYER   1   ROW     8   COL     1   RATE     582.292    
 BOUNDARY    107   LAYER   1   ROW     8   COL     2   RATE     582.292    
 BOUNDARY    108   LAYER   1   ROW     8   COL     3   RATE     582.292    
 BOUNDARY    109   LAYER   1   ROW     8   COL     4   RATE     582.292    
 BOUNDARY    110   LAYER   1   ROW     8   COL     5   RATE     582.292    
 BOUNDARY    111   LAYER   1   ROW     8   COL     6   RATE     582.292    
 BOUNDARY    112   LAYER   1   ROW     8   COL     7   RATE     582.292    
 BOUNDARY    113   LAYER   1   ROW     8   COL     8   RATE     582.292    
 BOUNDARY    114   LAYER   1   ROW     8   COL     9   RATE     582.292    
 BOUNDARY    115   LAYER   1   ROW     8   COL    10   RATE     582.292    
 BOUNDARY    116   LAYER   1   ROW     8   COL    11   RATE     582.292    
 BOUNDARY    117   LAYER   1   ROW     8   COL    12   RATE     582.292    
 BOUNDARY    118   LAYER   1   ROW     8   COL    13   RATE     582.292    
 BOUNDARY    119   LAYER   1   ROW     8   COL    14   RATE     582.292    
 BOUNDARY    120   LAYER   1   ROW     8   COL    15   RATE     582.292    
 BOUNDARY    121   LAYER   1   ROW     9   COL     1   RATE     582.292    
 BOUNDARY    122   LAYER   1   ROW     9   COL     2   RATE     582.292    
 BOUNDARY    123   LAYER   1   ROW     9   COL     3   RATE     582.292    
 BOUNDARY    124   LAYER   1   ROW     9   COL     4   RATE     582.292    
 BOUNDARY    125   LAYER   1   ROW     9   COL     5   RATE     582.292    
 BOUNDARY    126   LAYER   1   ROW     9   COL     6   RATE     582.292    
 BOUNDARY    127   LAYER   1   ROW     9   COL     7   RATE     582.292    
 BOUNDARY    128   LAYER   1   ROW     9   COL     8   RATE     582.292    
 BOUNDARY    129   LAYER   1   ROW     9   COL     9   RATE     582.292    
 BOUNDARY    130   LAYER   1   ROW     9   COL    10   RATE     582.292    
 BOUNDARY    131   LAYER   1   ROW     9   COL    11   RATE     582.292    
 BOUNDARY    132   LAYER   1   ROW     9   COL    12   RATE     582.292    
 BOUNDARY    133   LAYER   1   ROW     9   COL    13   RATE     582.292    
 BOUNDARY    134   LAYER   1   ROW     9   COL    14   RATE     582.292    
 BOUNDARY    135   LAYER   1   ROW     9   COL    15   RATE     582.292    
 BOUNDARY    136   LAYER   1   ROW    10   COL     1   RATE     582.292    
 BOUNDARY    137   LAYER   1   ROW    10   COL     2   RATE     582.292    
 BOUNDARY    138   LAYER   1   ROW    10   COL     3   RATE     582.292    
 BOUNDARY    139   LAYER   1   ROW    10   COL     4   RATE     582.292    
 BOUNDARY    140   LAYER   1   ROW    10   COL     5   RATE     582.292    
 BOUNDARY    141   LAYER   1   ROW    10   COL     6   RATE     582.292    
 BOUNDARY    142   LAYER   1   ROW    10   COL     7   RATE     582.292    
 BOUNDARY    143   LAYER   1   ROW    10   COL     8   RATE     582.292    
 BOUNDARY    144   LAYER   1   ROW    10   COL     9   RATE     582.292    
 BOUNDARY    145   LAYER   1   ROW    10   COL    10   RATE     582.292    
 BOUNDARY    146   LAYER   1   ROW    10   COL    11   RATE     582.292    
 BOUNDARY    147   LAYER   1   ROW    10   COL    12   RATE     582.292    
 BOUNDARY    148   LAYER   1   ROW    10   COL    13   RATE     582.292    
 BOUNDARY    149   LAYER   1   ROW    10   COL    14   RATE     582.292    
 BOUNDARY    150   LAYER   1   ROW    10   COL    15   RATE     582.292    
 UBDSV4 SAVING ET SEGS          ON UNIT   1016 AT TIME STEP      8, STRESS PERIOD      3

 ET SEGS            PERIOD  3   STEP  8
 BOUNDARY      1   LAYER   1   ROW     1   COL     1   RATE    -2.19259    
 BOUNDARY      2   LAYER   1   ROW     1   COL     2   RATE    -9.04559    
 BOUNDARY      3   LAYER   1   ROW     1   COL     3   RATE    -49.8398    
 BOUNDARY      4   LAYER   1   ROW     1   COL     4   RATE   -100.0000    
 BOUNDARY      5   LAYER   1   ROW     1   COL     5   RATE   -100.0000    
 BOUNDARY      6   LAYER   1   ROW     1   COL     6   RATE   -100.0000    
 BOUNDARY      7   LAYER   1   ROW     1   COL     7   RATE   -100.0000    
 BOUNDARY      8   LAYER   1   ROW     1   COL     8   RATE   -100.0000    
 BOUNDARY      9   LAYER   1   ROW     1   COL     9   RATE   -100.0000    
 BOUNDARY     10   LAYER   1   ROW     1   COL    10   RATE   -100.0000    
 BOUNDARY     11   LAYER   1   ROW     1   COL    11   RATE   -100.0000    
 BOUNDARY     12   LAYER   1   ROW     1   COL    12   RATE    -16.9395    
 BOUNDARY     13   LAYER   1   ROW     1   COL    13   RATE     0.00000    
 BOUNDARY     14   LAYER   1   ROW     1   COL    14   RATE     0.00000    
 BOUNDARY     15   LAYER   1   ROW     1   COL    15   RATE     0.00000    
 BOUNDARY     16   LAYER   1   ROW     2   COL     1   RATE     0.00000    
 BOUNDARY     17   LAYER   1   ROW     2   COL     2   RATE    -4.52802    
 BOUNDARY     18   LAYER   1   ROW     2   COL     3   RATE    -28.3304    
 BOUNDARY     19   LAYER   1   ROW     2   COL     4   RATE   -100.0000    
 BOUNDARY     20   LAYER   1   ROW     2   COL     5   RATE   -100.0000    
 BOUNDARY     21   LAYER   1   ROW     2   COL     6   RATE   -100.0000    
 BOUNDARY     22   LAYER   1   ROW     2   COL     7   RATE   -100.0000    
 BOUNDARY     23   LAYER   1   ROW     2   COL     8   RATE   -100.0000    
 BOUNDARY     24   LAYER   1   ROW     2   COL     9   RATE   -100.0000    
 BOUNDARY     25   LAYER   1   ROW     2   COL    10   RATE   -100.0000    
 BOUNDARY     26   LAYER   1   ROW     2   COL    11   RATE   -100.0000    
 BOUNDARY     27   LAYER   1   ROW     2   COL    12   RATE    -18.6790    
 BOUNDARY     28   LAYER   1   ROW     2   COL    13   RATE   -0.154967    
 BOUNDARY     29   LAYER   1   ROW     2   COL    14   RATE     0.00000    
 BOUNDARY     30   LAYER   1   ROW     2   COL    15   RATE     0.00000    
 BOUNDARY     31   LAYER   1   ROW     3   COL     1   RATE     0.00000    
 BOUNDARY     32   LAYER   1   ROW     3   COL     2   RATE     0.00000    
 BOUNDARY     33   LAYER   1   ROW     3   COL     3   RATE    -22.4208    
 BOUNDARY     34   LAYER   1   ROW     3   COL     4   RATE   -100.0000    
 BOUNDARY     35   LAYER   1   ROW     3   COL     5   RATE   -100.0000    
 BOUNDARY     36   LAYER   1   ROW     3   COL     6   RATE   -100.0000    
 BOUNDARY     37   LAYER   1   ROW     3   COL     7   RATE   -100.0000    
 BOUNDARY     38   LAYER   1   ROW     3   COL     8   RATE   -100.0000    
 BOUNDARY     39   LAYER   1   ROW     3   COL     9   RATE   -100.0000    
 BOUNDARY     40   LAYER   1   ROW     3   COL    10   RATE   -100.0000    
 BOUNDARY     41   LAYER   1   ROW     3   COL    11   RATE   -100.0000    
 BOUNDARY     42   LAYER   1   ROW     3   COL    12   RATE    -21.6130    
 BOUNDARY     43   LAYER   1   ROW     3   COL    13   RATE    -1.94257    
 BOUNDARY     44   LAYER   1   ROW     3   COL    14   RATE     0.00000    
 BOUNDARY     45   LAYER   1   ROW     3   COL    15   RATE     0.00000    
 BOUNDARY     46   LAYER   1   ROW     4   COL     1   RATE     0.00000    
 BOUNDARY     47   LAYER   1   ROW     4   COL     2   RATE    -3.01541    
 BOUNDARY     48   LAYER   1   ROW     4   COL     3   RATE    -26.2917    
 BOUNDARY     49   LAYER   1   ROW     4   COL     4   RATE   -100.0000    
 BOUNDARY     50   LAYER   1   ROW     4   COL     5   RATE   -100.0000    
 BOUNDARY     51   LAYER   1   ROW     4   COL     6   RATE   -100.0000    
 BOUNDARY     52   LAYER   1   ROW     4   COL     7   RATE   -100.0000    
 BOUNDARY     53   LAYER   1   ROW     4   COL     8   RATE   -100.0000    
 BOUNDARY     54   LAYER   1   ROW     4   COL     9   RATE   -100.0000    
 BOUNDARY     55   LAYER   1   ROW     4   COL    10   RATE   -100.0000    
 BOUNDARY     56   LAYER   1   ROW     4   COL    11   RATE   -100.0000    
 BOUNDARY     57   LAYER   1   ROW     4   COL    12   RATE    -24.4124    
 BOUNDARY     58   LAYER   1   ROW     4   COL    13   RATE    -3.40397    
 BOUNDARY     59   LAYER   1   ROW     4   COL    14   RATE     0.00000    
 BOUNDARY     60   LAYER   1   ROW     4   COL    15   RATE     0.00000    
 BOUNDARY     61   LAYER   1   ROW     5   COL     1   RATE     0.00000    
 BOUNDARY     62   LAYER   1   ROW     5   COL     2   RATE    -5.98947    
 BOUNDARY     63   LAYER   1   ROW     5   COL     3   RATE    -31.4585    
 BOUNDARY     64   LAYER   1   ROW     5   COL     4   RATE   -100.0000    
 BOUNDARY     65   LAYER   1   ROW     5   COL     5   RATE   -100.0000    
 BOUNDARY     66   LAYER   1   ROW     5   COL     6   RATE   -100.0000    
 BOUNDARY     67   LAYER   1   ROW     5   COL     7   RATE   -100.0000    
 BOUNDARY     68   LAYER   1   ROW     5   COL     8   RATE   -100.0000    
 BOUNDARY     69   LAYER   1   ROW     5   COL     9   RATE   -100.0000    
 BOUNDARY     70   LAYER   1   ROW     5   COL    10   RATE   -100.0000    
 BOUNDARY     71   LAYER   1   ROW     5   COL    11   RATE   -100.0000    
 BOUNDARY     72   LAYER   1   ROW     5   COL    12   RATE    -26.3491    
 BOUNDARY     73   LAYER   1   ROW     5   COL    13   RATE    -4.30922    
 BOUNDARY     74   LAYER   1   ROW     5   COL    14   RATE     0.00000    
 BOUNDARY     75   LAYER   1   ROW     5   COL    15   RATE     0.00000    
 BOUNDARY     76   LAYER   1   ROW     6   COL     1   RATE     0.00000    
 BOUNDARY     77   LAYER   1   ROW     6   COL     2   RATE    -4.55927    
 BOUNDARY     78   LAYER   1   ROW     6   COL     3   RATE    -35.3131    
 BOUNDARY     79   LAYER   1   ROW     6   COL     4   RATE   -100.0000    
 BOUNDARY     80   LAYER   1   ROW     6   COL     5   RATE   -100.0000    
 BOUNDARY     81   LAYER   1   ROW     6   COL     6   RATE   -100.0000    
 BOUNDARY     82   LAYER   1   ROW     6   COL     7   RATE   -100.0000    
 BOUNDARY     83   LAYER   1   ROW     6   COL     8   RATE   -100.0000    
 BOUNDARY     84   LAYER   1   ROW     6   COL     9   RATE   -100.0000    
 BOUNDARY     85   LAYER   1   ROW     6   COL    10   RATE   -100.0000    
 BOUNDARY     86   LAYER   1   ROW     6   COL    11   RATE   -100.0000    
 BOUNDARY     87   LAYER   1   ROW     6   COL    12   RATE    -26.9983    
 BOUNDARY     88   LAYER   1   ROW     6   COL    13   RATE    -4.26751    
 BOUNDARY     89   LAYER   1   ROW     6   COL    14   RATE     0.00000    
 BOUNDARY     90   LAYER   1   ROW     6   COL    15   RATE     0.00000    
 BOUNDARY     91   LAYER   1   ROW     7   COL     1   RATE     0.00000    
 BOUNDARY     92   LAYER   1   ROW     7   COL     2   RATE    -1.05928    
 BOUNDARY     93   LAYER   1   ROW     7   COL     3   RATE    -42.1863    
 BOUNDARY     94   LAYER   1   ROW     7   COL     4   RATE   -100.0000    
 BOUNDARY     95   LAYER   1   ROW     7   COL     5   RATE   -100.0000    
 BOUNDARY     96   LAYER   1   ROW     7   COL     6   RATE   -100.0000    
 BOUNDARY     97   LAYER   1   ROW     7   COL     7   RATE   -100.0000    
 BOUNDARY     98   LAYER   1   ROW     7   COL     8   RATE   -100.0000    
 BOUNDARY     99   LAYER   1   ROW     7   COL     9   RATE   -100.0000    
 BOUNDARY    100   LAYER   1   ROW     7   COL    10   RATE   -100.0000    
 BOUNDARY    101   LAYER   1   ROW     7   COL    11   RATE   -100.0000    
 BOUNDARY    102   LAYER   1   ROW     7   COL    12   RATE    -26.8376    
 BOUNDARY    103   LAYER   1   ROW     7   COL    13   RATE    -3.53790    
 BOUNDARY    104   LAYER   1   ROW     7   COL    14   RATE     0.00000    
 BOUNDARY    105   LAYER   1   ROW     7   COL    15   RATE     0.00000    
 BOUNDARY    106   LAYER   1   ROW     8   COL     1   RATE     0.00000    
 BOUNDARY    107   LAYER   1   ROW     8   COL     2   RATE    -11.4100    
 BOUNDARY    108   LAYER   1   ROW     8   COL     3   RATE   -100.0000    
 BOUNDARY    109   LAYER   1   ROW     8   COL     4   RATE   -100.0000    
 BOUNDARY    110   LAYER   1   ROW     8   COL     5   RATE   -100.0000    
 BOUNDARY    111   LAYER   1   ROW     8   COL     6   RATE   -100.0000    
 BOUNDARY    112   LAYER   1   ROW     8   COL     7   RATE   -100.0000    
 BOUNDARY    113   LAYER   1   ROW     8   COL     8   RATE   -100.0000    
 BOUNDARY    114   LAYER   1   ROW     8   COL     9   RATE   -100.0000    
 BOUNDARY    115   LAYER   1   ROW     8   COL    10   RATE   -100.0000    
 BOUNDARY    116   LAYER   1   ROW     8   COL    11   RATE   -100.0000    
 BOUNDARY    117   LAYER   1   ROW     8   COL    12   RATE    -27.2267    
 BOUNDARY    118   LAYER   1   ROW     8   COL    13   RATE    -3.54384    
 BOUNDARY    119   LAYER   1   ROW     8   COL    14   RATE     0.00000    
 BOUNDARY    120   LAYER   1   ROW     8   COL    15   RATE     0.00000    
 BOUNDARY    121   LAYER   1   ROW     9   COL     1   RATE    -18.9915    
 BOUNDARY    122   LAYER   1   ROW     9   COL     2   RATE    -61.2909    
 BOUNDARY    123   LAYER   1   ROW     9   COL     3   RATE   -100.0000    
 BOUNDARY    124   LAYER   1   ROW     9   COL     4   RATE   -100.0000    
 BOUNDARY    125   LAYER   1   ROW     9   COL     5   RATE   -100.0000    
 BOUNDARY    126   LAYER   1   ROW     9   COL     6   RATE   -100.0000    
 BOUNDARY    127   LAYER   1   ROW     9   COL     7   RATE   -100.0000    
 BOUNDARY    128   LAYER   1   ROW     9   COL     8   RATE   -100.0000    
 BOUNDARY    129   LAYER   1   ROW     9   COL     9   RATE   -100.0000    
 BOUNDARY    130   LAYER   1   ROW     9   COL    10   RATE   -100.0000    
 BOUNDARY    131   LAYER   1   ROW     9   COL    11   RATE   -100.0000    
 BOUNDARY    132   LAYER   1   ROW     9   COL    12   RATE    -28.3266    
 BOUNDARY    133   LAYER   1   ROW     9   COL    13   RATE    -4.36925    
 BOUNDARY    134   LAYER   1   ROW     9   COL    14   RATE     0.00000    
 BOUNDARY    135   LAYER   1   ROW     9   COL    15   RATE     0.00000    
 BOUNDARY    136   LAYER   1   ROW    10   COL     1   RATE    -69.5044    
 BOUNDARY    137   LAYER   1   ROW    10   COL     2   RATE   -100.0000    
 BOUNDARY    138   LAYER   1   ROW    10   COL     3   RATE   -100.0000    
 BOUNDARY    139   LAYER   1   ROW    10   COL     4   RATE   -100.0000    
 BOUNDARY    140   LAYER   1   ROW    10   COL     5   RATE   -100.0000    
 BOUNDARY    141   LAYER   1   ROW    10   COL     6   RATE   -100.0000    
 BOUNDARY    142   LAYER   1   ROW    10   COL     7   RATE   -100.0000    
 BOUNDARY    143   LAYER   1   ROW    10   COL     8   RATE   -100.0000    
 BOUNDARY    144   LAYER   1   ROW    10   COL     9   RATE   -100.0000    
 BOUNDARY    145   LAYER   1   ROW    10   COL    10   RATE   -100.0000    
 BOUNDARY    146   LAYER   1   ROW    10   COL    11   RATE   -100.0000    
 BOUNDARY    147   LAYER   1   ROW    10   COL    12   RATE    -29.1227    
 BOUNDARY    148   LAYER   1   ROW    10   COL    13   RATE    -4.89845    
 BOUNDARY    149   LAYER   1   ROW    10   COL    14   RATE     0.00000    
 BOUNDARY    150   LAYER   1   ROW    10   COL    15   RATE     0.00000    

 HEAD WILL BE SAVED ON UNIT 1017 AT END OF TIME STEP    8, STRESS PERIOD    3
WEL   no.    2 value from time series:   0.0000     for time:  40.00     to  41.00    
WEL   no.    3 value from time series:   0.0000     for time:  40.00     to  41.00    
RIV   no.    1 value from time series:   101.00     for time:  40.00     to  41.00    
RIV   no.    2 value from time series:   101.00     for time:  40.00     to  41.00    
RIV   no.    3 value from time series:   111.50     for time:  40.00     to  41.00    
RIV   no.    4 value from time series:   111.50     for time:  40.00     to  41.00    
RIV   no.    5 value from time series:   115.10     for time:  40.00     to  41.00    
RIV   no.    6 value from time series:   115.10     for time:  40.00     to  41.00    
RIV   no.    7 value from time series:   104.00     for time:  40.00     to  41.00    
RIV   no.    8 value from time series:   104.00     for time:  40.00     to  41.00    
RIV   no.    9 value from time series:   113.50     for time:  40.00     to  41.00    
RIV   no.   10 value from time series:   113.50     for time:  40.00     to  41.00    
WEL   no.    2 value from time series:   0.0000     for time:  40.00     to  41.00    
WEL   no.    3 value from time series:   0.0000     for time:  40.00     to  41.00    
RIV   no.    1 value from time series:   101.00     for time:  40.00     to  41.00    
RIV   no.    2 value from time series:   101.00     for time:  40.00     to  41.00    
RIV   no.    3 value from time series:   111.50     for time:  40.00     to  41.00    
RIV   no.    4 value from time series:   111.50     for time:  40.00     to  41.00    
RIV   no.    5 value from time series:   115.10     for time:  40.00     to  41.00    
RIV   no.    6 value from time series:   115.10     for time:  40.00     to  41.00    
RIV   no.    7 value from time series:   104.00     for time:  40.00     to  41.00    
RIV   no.    8 value from time series:   104.00     for time:  40.00     to  41.00    
RIV   no.    9 value from time series:   113.50     for time:  40.00     to  41.00    
RIV   no.   10 value from time series:   113.50     for time:  40.00     to  41.00    

 OUTPUT CONTROL FOR STRESS PERIOD    3   TIME STEP    9
    SAVE BUDGET
    SAVE HEAD
    SAVE HEAD FOR ALL LAYERS
 UBDSV1 SAVING          STORAGE ON UNIT   1016 AT TIME STEP      9, STRESS PERIOD      3
 UBDSV1 SAVING FLOW RIGHT FACE  ON UNIT   1016 AT TIME STEP      9, STRESS PERIOD      3
 UBDSV1 SAVING FLOW FRONT FACE  ON UNIT   1016 AT TIME STEP      9, STRESS PERIOD      3
 UBDSV1 SAVING FLOW LOWER FACE  ON UNIT   1016 AT TIME STEP      9, STRESS PERIOD      3
 UBDSV4 SAVING WELLS NEAR RIVER ON UNIT   1016 AT TIME STEP      9, STRESS PERIOD      3

 WELLS NEAR RIVER   PERIOD  3   STEP  9
 BOUNDARY      1   LAYER   1   ROW     2   COL     3   RATE    -50.0000    
 BOUNDARY      2   LAYER   2   ROW     3   COL     4   RATE     0.00000      WELL_1
 BOUNDARY      3   LAYER   2   ROW     8   COL     4   RATE     0.00000      WELL_2
 UBDSV4 SAVING RIVER            ON UNIT   1016 AT TIME STEP      9, STRESS PERIOD      3

 RIVER              PERIOD  3   STEP  9
 BOUNDARY      1   LAYER   1   ROW     1   COL    15   RATE    -4839.59    
 BOUNDARY      2   LAYER   1   ROW     2   COL    15   RATE    -5947.86      RIV2
 BOUNDARY      3   LAYER   1   ROW     3   COL    15   RATE    -2173.43      RIV3
 BOUNDARY      4   LAYER   1   ROW     4   COL    15   RATE    -3630.08    
 BOUNDARY      5   LAYER   1   ROW     5   COL    15   RATE    -2274.77    
 BOUNDARY      6   LAYER   1   ROW     6   COL    15   RATE    -1630.77    
 BOUNDARY      7   LAYER   1   ROW     7   COL    15   RATE    -6120.17      RIVX
 BOUNDARY      8   LAYER   1   ROW     8   COL    15   RATE    -5952.50      RIVX
 BOUNDARY      9   LAYER   1   ROW     9   COL    15   RATE    -2134.00      RIVX
 BOUNDARY     10   LAYER   1   ROW    10   COL    15   RATE    -3023.58    

 GHB LAKES          PERIOD  3   STEP  9
 BOUNDARY      1   LAYER   1   ROW     3   COL     1   RATE    -14480.4    
 BOUNDARY      2   LAYER   1   ROW     7   COL     1   RATE    -1849.25      GHB2_UPPER
 BOUNDARY      3   LAYER   1   ROW     7   COL     1   RATE    -13238.0      GHB2_LOWER
 UBDSV4 SAVING RECHARGE         ON UNIT   1016 AT TIME STEP      9, STRESS PERIOD      3

 RECHARGE           PERIOD  3   STEP  9
 BOUNDARY      1   LAYER   1   ROW     1   COL     1   RATE     584.375    
 BOUNDARY      2   LAYER   1   ROW     1   COL     2   RATE     584.375    
 BOUNDARY      3   LAYER   1   ROW     1   COL     3   RATE     584.375    
 BOUNDARY      4   LAYER   1   ROW     1   COL     4   RATE     584.375    
 BOUNDARY      5   LAYER   1   ROW     1   COL     5   RATE     584.375    
 BOUNDARY      6   LAYER   1   ROW     1   COL     6   RATE     584.375    
 BOUNDARY      7   LAYER   1   ROW     1   COL     7   RATE     584.375    
 BOUNDARY      8   LAYER   1   ROW     1   COL     8   RATE     584.375    
 BOUNDARY      9   LAYER   1   ROW     1   COL     9   RATE     584.375    
 BOUNDARY     10   LAYER   1   ROW     1   COL    10   RATE     584.375    
 BOUNDARY     11   LAYER   1   ROW     1   COL    11   RATE     584.375    
 BOUNDARY     12   LAYER   1   ROW     1   COL    12   RATE     584.375    
 BOUNDARY     13   LAYER   1   ROW     1   COL    13   RATE     584.375    
 BOUNDARY     14   LAYER   1   ROW     1   COL    14   RATE     584.375    
 BOUNDARY     15   LAYER   1   ROW     1   COL    15   RATE     584.375    
 BOUNDARY     16   LAYER   1   ROW     2   COL     1   RATE     584.375    
 BOUNDARY     17   LAYER   1   ROW     2   COL     2   RATE     584.375    
 BOUNDARY     18   LAYER   1   ROW     2   COL     3   RATE     584.375    
 BOUNDARY     19   LAYER   1   ROW     2   COL     4   RATE     584.375    
 BOUNDARY     20   LAYER   1   ROW     2   COL     5   RATE     584.375    
 BOUNDARY     21   LAYER   1   ROW     2   COL     6   RATE     584.375    
 BOUNDARY     22   LAYER   1   ROW     2   COL     7   RATE     584.375    
 BOUNDARY     23   LAYER   1   ROW     2   COL     8   RATE     584.375    
 BOUNDARY     24   LAYER   1   ROW     2   COL     9   RATE     584.375    
 BOUNDARY     25   LAYER   1   ROW     2   COL    10   RATE     584.375    
 BOUNDARY     26   LAYER   1   ROW     2   COL    11   RATE     584.375    
 BOUNDARY     27   LAYER   1   ROW     2   COL    12   RATE     584.375    
 BOUNDARY     28   LAYER   1   ROW     2   COL    13   RATE     584.375    
 BOUNDARY     29   LAYER   1   ROW     2   COL    14   RATE     584.375    
 BOUNDARY     30   LAYER   1   ROW     2   COL    15   RATE     584.375    
 BOUNDARY     31   LAYER   1   ROW     3   COL     1   RATE     584.375    
 BOUNDARY     32   LAYER   1   ROW     3   COL     2   RATE     584.375    
 BOUNDARY     33   LAYER   1   ROW     3   COL     3   RATE     584.375    
 BOUNDARY     34   LAYER   1   ROW     3   COL     4   RATE     584.375    
 BOUNDARY     35   LAYER   1   ROW     3   COL     5   RATE     584.375    
 BOUNDARY     36   LAYER   1   ROW     3   COL     6   RATE     584.375    
 BOUNDARY     37   LAYER   1   ROW     3   COL     7   RATE     584.375    
 BOUNDARY     38   LAYER   1   ROW     3   COL     8   RATE     584.375    
 BOUNDARY     39   LAYER   1   ROW     3   COL     9   RATE     584.375    
 BOUNDARY     40   LAYER   1   ROW     3   COL    10   RATE     584.375    
 BOUNDARY     41   LAYER   1   ROW     3   COL    11   RATE     584.375    
 BOUNDARY     42   LAYER   1   ROW     3   COL    12   RATE     584.375    
 BOUNDARY     43   LAYER   1   ROW     3   COL    13   RATE     584.375    
 BOUNDARY     44   LAYER   1   ROW     3   COL    14   RATE     584.375    
 BOUNDARY     45   LAYER   1   ROW     3   COL    15   RATE     584.375    
 BOUNDARY     46   LAYER   1   ROW     4   COL     1   RATE     584.375    
 BOUNDARY     47   LAYER   1   ROW     4   COL     2   RATE     584.375    
 BOUNDARY     48   LAYER   1   ROW     4   COL     3   RATE     584.375    
 BOUNDARY     49   LAYER   1   ROW     4   COL     4   RATE     584.375    
 BOUNDARY     50   LAYER   1   ROW     4   COL     5   RATE     584.375    
 BOUNDARY     51   LAYER   1   ROW     4   COL     6   RATE     584.375    
 BOUNDARY     52   LAYER   1   ROW     4   COL     7   RATE     584.375    
 BOUNDARY     53   LAYER   1   ROW     4   COL     8   RATE     584.375    
 BOUNDARY     54   LAYER   1   ROW     4   COL     9   RATE     584.375    
 BOUNDARY     55   LAYER   1   ROW     4   COL    10   RATE     584.375    
 BOUNDARY     56   LAYER   1   ROW     4   COL    11   RATE     584.375    
 BOUNDARY     57   LAYER   1   ROW     4   COL    12   RATE     584.375    
 BOUNDARY     58   LAYER   1   ROW     4   COL    13   RATE     584.375    
 BOUNDARY     59   LAYER   1   ROW     4   COL    14   RATE     584.375    
 BOUNDARY     60   LAYER   1   ROW     4   COL    15   RATE     584.375    
 BOUNDARY     61   LAYER   1   ROW     5   COL     1   RATE     584.375    
 BOUNDARY     62   LAYER   1   ROW     5   COL     2   RATE     584.375    
 BOUNDARY     63   LAYER   1   ROW     5   COL     3   RATE     584.375    
 BOUNDARY     64   LAYER   1   ROW     5   COL     4   RATE     584.375    
 BOUNDARY     65   LAYER   1   ROW     5   COL     5   RATE     584.375    
 BOUNDARY     66   LAYER   1   ROW     5   COL     6   RATE     584.375    
 BOUNDARY     67   LAYER   1   ROW     5   COL     7   RATE     584.375    
 BOUNDARY     68   LAYER   1   ROW     5   COL     8   RATE     584.375    
 BOUNDARY     69   LAYER   1   ROW     5   COL     9   RATE     584.375    
 BOUNDARY     70   LAYER   1   ROW     5   COL    10   RATE     584.375    
 BOUNDARY     71   LAYER   1   ROW     5   COL    11   RATE     584.375    
 BOUNDARY     72   LAYER   1   ROW     5   COL    12   RATE     584.375    
 BOUNDARY     73   LAYER   1   ROW     5   COL    13   RATE     584.375    
 BOUNDARY     74   LAYER   1   ROW     5   COL    14   RATE     584.375    
 BOUNDARY     75   LAYER   1   ROW     5   COL    15   RATE     584.375    
 BOUNDARY     76   LAYER   1   ROW     6   COL     1   RATE     584.375    
 BOUNDARY     77   LAYER   1   ROW     6   COL     2   RATE     584.375    
 BOUNDARY     78   LAYER   1   ROW     6   COL     3   RATE     584.375    
 BOUNDARY     79   LAYER   1   ROW     6   COL     4   RATE     584.375    
 BOUNDARY     80   LAYER   1   ROW     6   COL     5   RATE     584.375    
 BOUNDARY     81   LAYER   1   ROW     6   COL     6   RATE     584.375    
 BOUNDARY     82   LAYER   1   ROW     6   COL     7   RATE     584.375    
 BOUNDARY     83   LAYER   1   ROW     6   COL     8   RATE     584.375    
 BOUNDARY     84   LAYER   1   ROW     6   COL     9   RATE     584.375    
 BOUNDARY     85   LAYER   1   ROW     6   COL    10   RATE     584.375    
 BOUNDARY     86   LAYER   1   ROW     6   COL    11   RATE     584.375    
 BOUNDARY     87   LAYER   1   ROW     6   COL    12   RATE     584.375    
 BOUNDARY     88   LAYER   1   ROW     6   COL    13   RATE     584.375    
 BOUNDARY     89   LAYER   1   ROW     6   COL    14   RATE     584.375    
 BOUNDARY     90   LAYER   1   ROW     6   COL    15   RATE     584.375    
 BOUNDARY     91   LAYER   1   ROW     7   COL     1   RATE     584.375    
 BOUNDARY     92   LAYER   1   ROW     7   COL     2   RATE     584.375    
 BOUNDARY     93   LAYER   1   ROW     7   COL     3   RATE     584.375    
 BOUNDARY     94   LAYER   1   ROW     7   COL     4   RATE     584.375    
 BOUNDARY     95   LAYER   1   ROW     7   COL     5   RATE     584.375    
 BOUNDARY     96   LAYER   1   ROW     7   COL     6   RATE     584.375    
 BOUNDARY     97   LAYER   1   ROW     7   COL     7   RATE     584.375    
 BOUNDARY     98   LAYER   1   ROW     7   COL     8   RATE     584.375    
 BOUNDARY     99   LAYER   1   ROW     7   COL     9   RATE     584.375    
 BOUNDARY    100   LAYER   1   ROW     7   COL    10   RATE     584.375    
 BOUNDARY    101   LAYER   1   ROW     7   COL    11   RATE     584.375    
 BOUNDARY    102   LAYER   1   ROW     7   COL    12   RATE     584.375    
 BOUNDARY    103   LAYER   1   ROW     7   COL    13   RATE     584.375    
 BOUNDARY    104   LAYER   1   ROW     7   COL    14   RATE     584.375    
 BOUNDARY    105   LAYER   1   ROW     7   COL    15   RATE     584.375    
 BOUNDARY    106   LAYER   1   ROW     8   COL     1   RATE     584.375    
 BOUNDARY    107   LAYER   1   ROW     8   COL     2   RATE     584.375    
 BOUNDARY    108   LAYER   1   ROW     8   COL     3   RATE     584.375    
 BOUNDARY    109   LAYER   1   ROW     8   COL     4   RATE     584.375    
 BOUNDARY    110   LAYER   1   ROW     8   COL     5   RATE     584.375    
 BOUNDARY    111   LAYER   1   ROW     8   COL     6   RATE     584.375    
 BOUNDARY    112   LAYER   1   ROW     8   COL     7   RATE     584.375    
 BOUNDARY    113   LAYER   1   ROW     8   COL     8   RATE     584.375    
 BOUNDARY    114   LAYER   1   ROW     8   COL     9   RATE     584.375    
 BOUNDARY    115   LAYER   1   ROW     8   COL    10   RATE     584.375    
 BOUNDARY    116   LAYER   1   ROW     8   COL    11   RATE     584.375    
 BOUNDARY    117   LAYER   1   ROW     8   COL    12   RATE     584.375    
 BOUNDARY    118   LAYER   1   ROW     8   COL    13   RATE     584.375    
 BOUNDARY    119   LAYER   1   ROW     8   COL    14   RATE     584.375    
 BOUNDARY    120   LAYER   1   ROW     8   COL    15   RATE     584.375    
 BOUNDARY    121   LAYER   1   ROW     9   COL     1   RATE     584.375    
 BOUNDARY    122   LAYER   1   ROW     9   COL     2   RATE     584.375    
 BOUNDARY    123   LAYER   1   ROW     9   COL     3   RATE     584.375    
 BOUNDARY    124   LAYER   1   ROW     9   COL     4   RATE     584.375    
 BOUNDARY    125   LAYER   1   ROW     9   COL     5   RATE     584.375    
 BOUNDARY    126   LAYER   1   ROW     9   COL     6   RATE     584.375    
 BOUNDARY    127   LAYER   1   ROW     9   COL     7   RATE     584.375    
 BOUNDARY    128   LAYER   1   ROW     9   COL     8   RATE     584.375    
 BOUNDARY    129   LAYER   1   ROW     9   COL     9   RATE     584.375    
 BOUNDARY    130   LAYER   1   ROW     9   COL    10   RATE     584.375    
 BOUNDARY    131   LAYER   1   ROW     9   COL    11   RATE     584.375    
 BOUNDARY    132   LAYER   1   ROW     9   COL    12   RATE     584.375    
 BOUNDARY    133   LAYER   1   ROW     9   COL    13   RATE     584.375    
 BOUNDARY    134   LAYER   1   ROW     9   COL    14   RATE     584.375    
 BOUNDARY    135   LAYER   1   ROW     9   COL    15   RATE     584.375    
 BOUNDARY    136   LAYER   1   ROW    10   COL     1   RATE     584.375    
 BOUNDARY    137   LAYER   1   ROW    10   COL     2   RATE     584.375    
 BOUNDARY    138   LAYER   1   ROW    10   COL     3   RATE     584.375    
 BOUNDARY    139   LAYER   1   ROW    10   COL     4   RATE     584.375    
 BOUNDARY    140   LAYER   1   ROW    10   COL     5   RATE     584.375    
 BOUNDARY    141   LAYER   1   ROW    10   COL     6   RATE     584.375    
 BOUNDARY    142   LAYER   1   ROW    10   COL     7   RATE     584.375    
 BOUNDARY    143   LAYER   1   ROW    10   COL     8   RATE     584.375    
 BOUNDARY    144   LAYER   1   ROW    10   COL     9   RATE     584.375    
 BOUNDARY    145   LAYER   1   ROW    10   COL    10   RATE     584.375    
 BOUNDARY    146   LAYER   1   ROW    10   COL    11   RATE     584.375    
 BOUNDARY    147   LAYER   1   ROW    10   COL    12   RATE     584.375    
 BOUNDARY    148   LAYER   1   ROW    10   COL    13   RATE     584.375    
 BOUNDARY    149   LAYER   1   ROW    10   COL    14   RATE     584.375    
 BOUNDARY    150   LAYER   1   ROW    10   COL    15   RATE     584.375    
 UBDSV4 SAVING ET SEGS          ON UNIT   1016 AT TIME STEP      9, STRESS PERIOD      3

 ET SEGS            PERIOD  3   STEP  9
 BOUNDARY      1   LAYER   1   ROW     1   COL     1   RATE    -2.19910    
 BOUNDARY      2   LAYER   1   ROW     1   COL     2   RATE    -9.05209    
 BOUNDARY      3   LAYER   1   ROW     1   COL     3   RATE    -49.9475    
 BOUNDARY      4   LAYER   1   ROW     1   COL     4   RATE   -100.0000    
 BOUNDARY      5   LAYER   1   ROW     1   COL     5   RATE   -100.0000    
 BOUNDARY      6   LAYER   1   ROW     1   COL     6   RATE   -100.0000    
 BOUNDARY      7   LAYER   1   ROW     1   COL     7   RATE   -100.0000    
 BOUNDARY      8   LAYER   1   ROW     1   COL     8   RATE   -100.0000    
 BOUNDARY      9   LAYER   1   ROW     1   COL     9   RATE   -100.0000    
 BOUNDARY     10   LAYER   1   ROW     1   COL    10   RATE   -100.0000    
 BOUNDARY     11   LAYER   1   ROW     1   COL    11   RATE   -100.0000    
 BOUNDARY     12   LAYER   1   ROW     1   COL    12   RATE    -16.9623    
 BOUNDARY     13   LAYER   1   ROW     1   COL    13   RATE     0.00000    
 BOUNDARY     14   LAYER   1   ROW     1   COL    14   RATE     0.00000    
 BOUNDARY     15   LAYER   1   ROW     1   COL    15   RATE     0.00000    
 BOUNDARY     16   LAYER   1   ROW     2   COL     1   RATE     0.00000    
 BOUNDARY     17   LAYER   1   ROW     2   COL     2   RATE    -4.53419    
 BOUNDARY     18   LAYER   1   ROW     2   COL     3   RATE    -28.3438    
 BOUNDARY     19   LAYER   1   ROW     2   COL     4   RATE   -100.0000    
 BOUNDARY     20   LAYER   1   ROW     2   COL     5   RATE   -100.0000    
 BOUNDARY     21   LAYER   1   ROW     2   COL     6   RATE   -100.0000    
 BOUNDARY     22   LAYER   1   ROW     2   COL     7   RATE   -100.0000    
 BOUNDARY     23   LAYER   1   ROW     2   COL     8   RATE   -100.0000    
 BOUNDARY     24   LAYER   1   ROW     2   COL     9   RATE   -100.0000    
 BOUNDARY     25   LAYER   1   ROW     2   COL    10   RATE   -100.0000    
 BOUNDARY     26   LAYER   1   ROW     2   COL    11   RATE   -100.0000    
 BOUNDARY     27   LAYER   1   ROW     2   COL    12   RATE    -18.7018    
 BOUNDARY     28   LAYER   1   ROW     2   COL    13   RATE   -0.162361    
 BOUNDARY     29   LAYER   1   ROW     2   COL    14   RATE     0.00000    
 BOUNDARY     30   LAYER   1   ROW     2   COL    15   RATE     0.00000    
 BOUNDARY     31   LAYER   1   ROW     3   COL     1   RATE     0.00000    
 BOUNDARY     32   LAYER   1   ROW     3   COL     2   RATE     0.00000    
 BOUNDARY     33   LAYER   1   ROW     3   COL     3   RATE    -22.4415    
 BOUNDARY     34   LAYER   1   ROW     3   COL     4   RATE   -100.0000    
 BOUNDARY     35   LAYER   1   ROW     3   COL     5   RATE   -100.0000    
 BOUNDARY     36   LAYER   1   ROW     3   COL     6   RATE   -100.0000    
 BOUNDARY     37   LAYER   1   ROW     3   COL     7   RATE   -100.0000    
 BOUNDARY     38   LAYER   1   ROW     3   COL     8   RATE   -100.0000    
 BOUNDARY     39   LAYER   1   ROW     3   COL     9   RATE   -100.0000    
 BOUNDARY     40   LAYER   1   ROW     3   COL    10   RATE   -100.0000    
 BOUNDARY     41   LAYER   1   ROW     3   COL    11   RATE   -100.0000    
 BOUNDARY     42   LAYER   1   ROW     3   COL    12   RATE    -21.6358    
 BOUNDARY     43   LAYER   1   ROW     3   COL    13   RATE    -1.95009    
 BOUNDARY     44   LAYER   1   ROW     3   COL    14   RATE     0.00000    
 BOUNDARY     45   LAYER   1   ROW     3   COL    15   RATE     0.00000    
 BOUNDARY     46   LAYER   1   ROW     4   COL     1   RATE     0.00000    
 BOUNDARY     47   LAYER   1   ROW     4   COL     2   RATE    -3.02187    
 BOUNDARY     48   LAYER   1   ROW     4   COL     3   RATE    -26.3134    
 BOUNDARY     49   LAYER   1   ROW     4   COL     4   RATE   -100.0000    
 BOUNDARY     50   LAYER   1   ROW     4   COL     5   RATE   -100.0000    
 BOUNDARY     51   LAYER   1   ROW     4   COL     6   RATE   -100.0000    
 BOUNDARY     52   LAYER   1   ROW     4   COL     7   RATE   -100.0000    
 BOUNDARY     53   LAYER   1   ROW     4   COL     8   RATE   -100.0000    
 BOUNDARY     54   LAYER   1   ROW     4   COL     9   RATE   -100.0000    
 BOUNDARY     55   LAYER   1   ROW     4   COL    10   RATE   -100.0000    
 BOUNDARY     56   LAYER   1   ROW     4   COL    11   RATE   -100.0000    
 BOUNDARY     57   LAYER   1   ROW     4   COL    12   RATE    -24.4350    
 BOUNDARY     58   LAYER   1   ROW     4   COL    13   RATE    -3.41126    
 BOUNDARY     59   LAYER   1   ROW     4   COL    14   RATE     0.00000    
 BOUNDARY     60   LAYER   1   ROW     4   COL    15   RATE     0.00000    
 BOUNDARY     61   LAYER   1   ROW     5   COL     1   RATE     0.00000    
 BOUNDARY     62   LAYER   1   ROW     5   COL     2   RATE    -5.99599    
 BOUNDARY     63   LAYER   1   ROW     5   COL     3   RATE    -31.5718    
 BOUNDARY     64   LAYER   1   ROW     5   COL     4   RATE   -100.0000    
 BOUNDARY     65   LAYER   1   ROW     5   COL     5   RATE   -100.0000    
 BOUNDARY     66   LAYER   1   ROW     5   COL     6   RATE   -100.0000    
 BOUNDARY     67   LAYER   1   ROW     5   COL     7   RATE   -100.0000    
 BOUNDARY     68   LAYER   1   ROW     5   COL     8   RATE   -100.0000    
 BOUNDARY     69   LAYER   1   ROW     5   COL     9   RATE   -100.0000    
 BOUNDARY     70   LAYER   1   ROW     5   COL    10   RATE   -100.0000    
 BOUNDARY     71   LAYER   1   ROW     5   COL    11   RATE   -100.0000    
 BOUNDARY     72   LAYER   1   ROW     5   COL    12   RATE    -26.3714    
 BOUNDARY     73   LAYER   1   ROW     5   COL    13   RATE    -4.31596    
 BOUNDARY     74   LAYER   1   ROW     5   COL    14   RATE     0.00000    
 BOUNDARY     75   LAYER   1   ROW     5   COL    15   RATE     0.00000    
 BOUNDARY     76   LAYER   1   ROW     6   COL     1   RATE     0.00000    
 BOUNDARY     77   LAYER   1   ROW     6   COL     2   RATE    -4.56565    
 BOUNDARY     78   LAYER   1   ROW     6   COL     3   RATE    -35.4257    
 BOUNDARY     79   LAYER   1   ROW     6   COL     4   RATE   -100.0000    
 BOUNDARY     80   LAYER   1   ROW     6   COL     5   RATE   -100.0000    
 BOUNDARY     81   LAYER   1   ROW     6   COL     6   RATE   -100.0000    
 BOUNDARY     82   LAYER   1   ROW     6   COL     7   RATE   -100.0000    
 BOUNDARY     83   LAYER   1   ROW     6   COL     8   RATE   -100.0000    
 BOUNDARY     84   LAYER   1   ROW     6   COL     9   RATE   -100.0000    
 BOUNDARY     85   LAYER   1   ROW     6   COL    10   RATE   -100.0000    
 BOUNDARY     86   LAYER   1   ROW     6   COL    11   RATE   -100.0000    
 BOUNDARY     87   LAYER   1   ROW     6   COL    12   RATE    -27.0205    
 BOUNDARY     88   LAYER   1   ROW     6   COL    13   RATE    -4.27413    
 BOUNDARY     89   LAYER   1   ROW     6   COL    14   RATE     0.00000    
 BOUNDARY     90   LAYER   1   ROW     6   COL    15   RATE     0.00000    
 BOUNDARY     91   LAYER   1   ROW     7   COL     1   RATE     0.00000    
 BOUNDARY     92   LAYER   1   ROW     7   COL     2   RATE    -1.06525    
 BOUNDARY     93   LAYER   1   ROW     7   COL     3   RATE    -42.2982    
 BOUNDARY     94   LAYER   1   ROW     7   COL     4   RATE   -100.0000    
 BOUNDARY     95   LAYER   1   ROW     7   COL     5   RATE   -100.0000    
 BOUNDARY     96   LAYER   1   ROW     7   COL     6   RATE   -100.0000    
 BOUNDARY     97   LAYER   1   ROW     7   COL     7   RATE   -100.0000    
 BOUNDARY     98   LAYER   1   ROW     7   COL     8   RATE   -100.0000    
 BOUNDARY     99   LAYER   1   ROW     7   COL     9   RATE   -100.0000    
 BOUNDARY    100   LAYER   1   ROW     7   COL    10   RATE   -100.0000    
 BOUNDARY    101   LAYER   1   ROW     7   COL    11   RATE   -100.0000    
 BOUNDARY    102   LAYER   1   ROW     7   COL    12   RATE    -26.8600    
 BOUNDARY    103   LAYER   1   ROW     7   COL    13   RATE    -3.54479    
 BOUNDARY    104   LAYER   1   ROW     7   COL    14   RATE     0.00000    
 BOUNDARY    105   LAYER   1   ROW     7   COL    15   RATE     0.00000    
 BOUNDARY    106   LAYER   1   ROW     8   COL     1   RATE     0.00000    
 BOUNDARY    107   LAYER   1   ROW     8   COL     2   RATE    -11.4312    
 BOUNDARY    108   LAYER   1   ROW     8   COL     3   RATE   -100.0000    
 BOUNDARY    109   LAYER   1   ROW     8   COL     4   RATE   -100.0000    
 BOUNDARY    110   LAYER   1   ROW     8   COL     5   RATE   -100.0000    
 BOUNDARY    111   LAYER   1   ROW     8   COL     6   RATE   -100.0000    
 BOUNDARY    112   LAYER   1   ROW     8   COL     7   RATE   -100.0000    
 BOUNDARY    113   LAYER   1   ROW     8   COL     8   RATE   -100.0000    
 BOUNDARY    114   LAYER   1   ROW     8   COL     9   RATE   -100.0000    
 BOUNDARY    115   LAYER   1   ROW     8   COL    10   RATE   -100.0000    
 BOUNDARY    116   LAYER   1   ROW     8   COL    11   RATE   -100.0000    
 BOUNDARY    117   LAYER   1   ROW     8   COL    12   RATE    -27.2494    
 BOUNDARY    118   LAYER   1   ROW     8   COL    13   RATE    -3.55116    
 BOUNDARY    119   LAYER   1   ROW     8   COL    14   RATE     0.00000    
 BOUNDARY    120   LAYER   1   ROW     8   COL    15   RATE     0.00000    
 BOUNDARY    121   LAYER   1   ROW     9   COL     1   RATE    -19.0130    
 BOUNDARY    122   LAYER   1   ROW     9   COL     2   RATE    -61.4038    
 BOUNDARY    123   LAYER   1   ROW     9   COL     3   RATE   -100.0000    
 BOUNDARY    124   LAYER   1   ROW     9   COL     4   RATE   -100.0000    
 BOUNDARY    125   LAYER   1   ROW     9   COL     5   RATE   -100.0000    
 BOUNDARY    126   LAYER   1   ROW     9   COL     6   RATE   -100.0000    
 BOUNDARY    127   LAYER   1   ROW     9   COL     7   RATE   -100.0000    
 BOUNDARY    128   LAYER   1   ROW     9   COL     8   RATE   -100.0000    
 BOUNDARY    129   LAYER   1   ROW     9   COL     9   RATE   -100.0000    
 BOUNDARY    130   LAYER   1   ROW     9   COL    10   RATE   -100.0000    
 BOUNDARY    131   LAYER   1   ROW     9   COL    11   RATE   -100.0000    
 BOUNDARY    132   LAYER   1   ROW     9   COL    12   RATE    -28.3498    
 BOUNDARY    133   LAYER   1   ROW     9   COL    13   RATE    -4.37724    
 BOUNDARY    134   LAYER   1   ROW     9   COL    14   RATE     0.00000    
 BOUNDARY    135   LAYER   1   ROW     9   COL    15   RATE     0.00000    
 BOUNDARY    136   LAYER   1   ROW    10   COL     1   RATE    -69.6172    
 BOUNDARY    137   LAYER   1   ROW    10   COL     2   RATE   -100.0000    
 BOUNDARY    138   LAYER   1   ROW    10   COL     3   RATE   -100.0000    
 BOUNDARY    139   LAYER   1   ROW    10   COL     4   RATE   -100.0000    
 BOUNDARY    140   LAYER   1   ROW    10   COL     5   RATE   -100.0000    
 BOUNDARY    141   LAYER   1   ROW    10   COL     6   RATE   -100.0000    
 BOUNDARY    142   LAYER   1   ROW    10   COL     7   RATE   -100.0000    
 BOUNDARY    143   LAYER   1   ROW    10   COL     8   RATE   -100.0000    
 BOUNDARY    144   LAYER   1   ROW    10   COL     9   RATE   -100.0000    
 BOUNDARY    145   LAYER   1   ROW    10   COL    10   RATE   -100.0000    
 BOUNDARY    146   LAYER   1   ROW    10   COL    11   RATE   -100.0000    
 BOUNDARY    147   LAYER   1   ROW    10   COL    12   RATE    -29.1461    
 BOUNDARY    148   LAYER   1   ROW    10   COL    13   RATE    -4.90672    
 BOUNDARY    149   LAYER   1   ROW    10   COL    14   RATE     0.00000    
 BOUNDARY    150   LAYER   1   ROW    10   COL    15   RATE     0.00000    

 HEAD WILL BE SAVED ON UNIT 1017 AT END OF TIME STEP    9, STRESS PERIOD    3
WEL   no.    2 value from time series:   0.0000     for time:  41.00     to  42.00    
WEL   no.    3 value from time series:   0.0000     for time:  41.00     to  42.00    
RIV   no.    1 value from time series:   101.00     for time:  41.00     to  42.00    
RIV   no.    2 value from time series:   101.00     for time:  41.00     to  42.00    
RIV   no.    3 value from time series:   111.50     for time:  41.00     to  42.00    
RIV   no.    4 value from time series:   111.50     for time:  41.00     to  42.00    
RIV   no.    5 value from time series:   115.10     for time:  41.00     to  42.00    
RIV   no.    6 value from time series:   115.10     for time:  41.00     to  42.00    
RIV   no.    7 value from time series:   104.00     for time:  41.00     to  42.00    
RIV   no.    8 value from time series:   104.00     for time:  41.00     to  42.00    
RIV   no.    9 value from time series:   113.50     for time:  41.00     to  42.00    
RIV   no.   10 value from time series:   113.50     for time:  41.00     to  42.00    
WEL   no.    2 value from time series:   0.0000     for time:  41.00     to  42.00    
WEL   no.    3 value from time series:   0.0000     for time:  41.00     to  42.00    
RIV   no.    1 value from time series:   101.00     for time:  41.00     to  42.00    
RIV   no.    2 value from time series:   101.00     for time:  41.00     to  42.00    
RIV   no.    3 value from time series:   111.50     for time:  41.00     to  42.00    
RIV   no.    4 value from time series:   111.50     for time:  41.00     to  42.00    
RIV   no.    5 value from time series:   115.10     for time:  41.00     to  42.00    
RIV   no.    6 value from time series:   115.10     for time:  41.00     to  42.00    
RIV   no.    7 value from time series:   104.00     for time:  41.00     to  42.00    
RIV   no.    8 value from time series:   104.00     for time:  41.00     to  42.00    
RIV   no.    9 value from time series:   113.50     for time:  41.00     to  42.00    
RIV   no.   10 value from time series:   113.50     for time:  41.00     to  42.00    

 OUTPUT CONTROL FOR STRESS PERIOD    3   TIME STEP   10
    SAVE BUDGET
    SAVE HEAD
    SAVE HEAD FOR ALL LAYERS
 UBDSV1 SAVING          STORAGE ON UNIT   1016 AT TIME STEP     10, STRESS PERIOD      3
 UBDSV1 SAVING FLOW RIGHT FACE  ON UNIT   1016 AT TIME STEP     10, STRESS PERIOD      3
 UBDSV1 SAVING FLOW FRONT FACE  ON UNIT   1016 AT TIME STEP     10, STRESS PERIOD      3
 UBDSV1 SAVING FLOW LOWER FACE  ON UNIT   1016 AT TIME STEP     10, STRESS PERIOD      3
 UBDSV4 SAVING WELLS NEAR RIVER ON UNIT   1016 AT TIME STEP     10, STRESS PERIOD      3

 WELLS NEAR RIVER   PERIOD  3   STEP 10
 BOUNDARY      1   LAYER   1   ROW     2   COL     3   RATE    -50.0000    
 BOUNDARY      2   LAYER   2   ROW     3   COL     4   RATE     0.00000      WELL_1
 BOUNDARY      3   LAYER   2   ROW     8   COL     4   RATE     0.00000      WELL_2
 UBDSV4 SAVING RIVER            ON UNIT   1016 AT TIME STEP     10, STRESS PERIOD      3

 RIVER              PERIOD  3   STEP 10
 BOUNDARY      1   LAYER   1   ROW     1   COL    15   RATE    -4835.86    
 BOUNDARY      2   LAYER   1   ROW     2   COL    15   RATE    -5944.72      RIV2
 BOUNDARY      3   LAYER   1   ROW     3   COL    15   RATE    -2172.72      RIV3
 BOUNDARY      4   LAYER   1   ROW     4   COL    15   RATE    -3629.55    
 BOUNDARY      5   LAYER   1   ROW     5   COL    15   RATE    -2274.03    
 BOUNDARY      6   LAYER   1   ROW     6   COL    15   RATE    -1629.68    
 BOUNDARY      7   LAYER   1   ROW     7   COL    15   RATE    -6118.35      RIVX
 BOUNDARY      8   LAYER   1   ROW     8   COL    15   RATE    -5951.32      RIVX
 BOUNDARY      9   LAYER   1   ROW     9   COL    15   RATE    -2134.28      RIVX
 BOUNDARY     10   LAYER   1   ROW    10   COL    15   RATE    -3024.45    

 GHB LAKES          PERIOD  3   STEP 10
 BOUNDARY      1   LAYER   1   ROW     3   COL     1   RATE    -14482.9    
 BOUNDARY      2   LAYER   1   ROW     7   COL     1   RATE    -1850.89      GHB2_UPPER
 BOUNDARY      3   LAYER   1   ROW     7   COL     1   RATE    -13238.6      GHB2_LOWER
 UBDSV4 SAVING RECHARGE         ON UNIT   1016 AT TIME STEP     10, STRESS PERIOD      3

 RECHARGE           PERIOD  3   STEP 10
 BOUNDARY      1   LAYER   1   ROW     1   COL     1   RATE     586.458    
 BOUNDARY      2   LAYER   1   ROW     1   COL     2   RATE     586.458    
 BOUNDARY      3   LAYER   1   ROW     1   COL     3   RATE     586.458    
 BOUNDARY      4   LAYER   1   ROW     1   COL     4   RATE     586.458    
 BOUNDARY      5   LAYER   1   ROW     1   COL     5   RATE     586.458    
 BOUNDARY      6   LAYER   1   ROW     1   COL     6   RATE     586.458    
 BOUNDARY      7   LAYER   1   ROW     1   COL     7   RATE     586.458    
 BOUNDARY      8   LAYER   1   ROW     1   COL     8   RATE     586.458    
 BOUNDARY      9   LAYER   1   ROW     1   COL     9   RATE     586.458    
 BOUNDARY     10   LAYER   1   ROW     1   COL    10   RATE     586.458    
 BOUNDARY     11   LAYER   1   ROW     1   COL    11   RATE     586.458    
 BOUNDARY     12   LAYER   1   ROW     1   COL    12   RATE     586.458    
 BOUNDARY     13   LAYER   1   ROW     1   COL    13   RATE     586.458    
 BOUNDARY     14   LAYER   1   ROW     1   COL    14   RATE     586.458    
 BOUNDARY     15   LAYER   1   ROW     1   COL    15   RATE     586.458    
 BOUNDARY     16   LAYER   1   ROW     2   COL     1   RATE     586.458    
 BOUNDARY     17   LAYER   1   ROW     2   COL     2   RATE     586.458    
 BOUNDARY     18   LAYER   1   ROW     2   COL     3   RATE     586.458    
 BOUNDARY     19   LAYER   1   ROW     2   COL     4   RATE     586.458    
 BOUNDARY     20   LAYER   1   ROW     2   COL     5   RATE     586.458    
 BOUNDARY     21   LAYER   1   ROW     2   COL     6   RATE     586.458    
 BOUNDARY     22   LAYER   1   ROW     2   COL     7   RATE     586.458    
 BOUNDARY     23   LAYER   1   ROW     2   COL     8   RATE     586.458    
 BOUNDARY     24   LAYER   1   ROW     2   COL     9   RATE     586.458    
 BOUNDARY     25   LAYER   1   ROW     2   COL    10   RATE     586.458    
 BOUNDARY     26   LAYER   1   ROW     2   COL    11   RATE     586.458    
 BOUNDARY     27   LAYER   1   ROW     2   COL    12   RATE     586.458    
 BOUNDARY     28   LAYER   1   ROW     2   COL    13   RATE     586.458    
 BOUNDARY     29   LAYER   1   ROW     2   COL    14   RATE     586.458    
 BOUNDARY     30   LAYER   1   ROW     2   COL    15   RATE     586.458    
 BOUNDARY     31   LAYER   1   ROW     3   COL     1   RATE     586.458    
 BOUNDARY     32   LAYER   1   ROW     3   COL     2   RATE     586.458    
 BOUNDARY     33   LAYER   1   ROW     3   COL     3   RATE     586.458    
 BOUNDARY     34   LAYER   1   ROW     3   COL     4   RATE     586.458    
 BOUNDARY     35   LAYER   1   ROW     3   COL     5   RATE     586.458    
 BOUNDARY     36   LAYER   1   ROW     3   COL     6   RATE     586.458    
 BOUNDARY     37   LAYER   1   ROW     3   COL     7   RATE     586.458    
 BOUNDARY     38   LAYER   1   ROW     3   COL     8   RATE     586.458    
 BOUNDARY     39   LAYER   1   ROW     3   COL     9   RATE     586.458    
 BOUNDARY     40   LAYER   1   ROW     3   COL    10   RATE     586.458    
 BOUNDARY     41   LAYER   1   ROW     3   COL    11   RATE     586.458    
 BOUNDARY     42   LAYER   1   ROW     3   COL    12   RATE     586.458    
 BOUNDARY     43   LAYER   1   ROW     3   COL    13   RATE     586.458    
 BOUNDARY     44   LAYER   1   ROW     3   COL    14   RATE     586.458    
 BOUNDARY     45   LAYER   1   ROW     3   COL    15   RATE     586.458    
 BOUNDARY     46   LAYER   1   ROW     4   COL     1   RATE     586.458    
 BOUNDARY     47   LAYER   1   ROW     4   COL     2   RATE     586.458    
 BOUNDARY     48   LAYER   1   ROW     4   COL     3   RATE     586.458    
 BOUNDARY     49   LAYER   1   ROW     4   COL     4   RATE     586.458    
 BOUNDARY     50   LAYER   1   ROW     4   COL     5   RATE     586.458    
 BOUNDARY     51   LAYER   1   ROW     4   COL     6   RATE     586.458    
 BOUNDARY     52   LAYER   1   ROW     4   COL     7   RATE     586.458    
 BOUNDARY     53   LAYER   1   ROW     4   COL     8   RATE     586.458    
 BOUNDARY     54   LAYER   1   ROW     4   COL     9   RATE     586.458    
 BOUNDARY     55   LAYER   1   ROW     4   COL    10   RATE     586.458    
 BOUNDARY     56   LAYER   1   ROW     4   COL    11   RATE     586.458    
 BOUNDARY     57   LAYER   1   ROW     4   COL    12   RATE     586.458    
 BOUNDARY     58   LAYER   1   ROW     4   COL    13   RATE     586.458    
 BOUNDARY     59   LAYER   1   ROW     4   COL    14   RATE     586.458    
 BOUNDARY     60   LAYER   1   ROW     4   COL    15   RATE     586.458    
 BOUNDARY     61   LAYER   1   ROW     5   COL     1   RATE     586.458    
 BOUNDARY     62   LAYER   1   ROW     5   COL     2   RATE     586.458    
 BOUNDARY     63   LAYER   1   ROW     5   COL     3   RATE     586.458    
 BOUNDARY     64   LAYER   1   ROW     5   COL     4   RATE     586.458    
 BOUNDARY     65   LAYER   1   ROW     5   COL     5   RATE     586.458    
 BOUNDARY     66   LAYER   1   ROW     5   COL     6   RATE     586.458    
 BOUNDARY     67   LAYER   1   ROW     5   COL     7   RATE     586.458    
 BOUNDARY     68   LAYER   1   ROW     5   COL     8   RATE     586.458    
 BOUNDARY     69   LAYER   1   ROW     5   COL     9   RATE     586.458    
 BOUNDARY     70   LAYER   1   ROW     5   COL    10   RATE     586.458    
 BOUNDARY     71   LAYER   1   ROW     5   COL    11   RATE     586.458    
 BOUNDARY     72   LAYER   1   ROW     5   COL    12   RATE     586.458    
 BOUNDARY     73   LAYER   1   ROW     5   COL    13   RATE     586.458    
 BOUNDARY     74   LAYER   1   ROW     5   COL    14   RATE     586.458    
 BOUNDARY     75   LAYER   1   ROW     5   COL    15   RATE     586.458    
 BOUNDARY     76   LAYER   1   ROW     6   COL     1   RATE     586.458    
 BOUNDARY     77   LAYER   1   ROW     6   COL     2   RATE     586.458    
 BOUNDARY     78   LAYER   1   ROW     6   COL     3   RATE     586.458    
 BOUNDARY     79   LAYER   1   ROW     6   COL     4   RATE     586.458    
 BOUNDARY     80   LAYER   1   ROW     6   COL     5   RATE     586.458    
 BOUNDARY     81   LAYER   1   ROW     6   COL     6   RATE     586.458    
 BOUNDARY     82   LAYER   1   ROW     6   COL     7   RATE     586.458    
 BOUNDARY     83   LAYER   1   ROW     6   COL     8   RATE     586.458    
 BOUNDARY     84   LAYER   1   ROW     6   COL     9   RATE     586.458    
 BOUNDARY     85   LAYER   1   ROW     6   COL    10   RATE     586.458    
 BOUNDARY     86   LAYER   1   ROW     6   COL    11   RATE     586.458    
 BOUNDARY     87   LAYER   1   ROW     6   COL    12   RATE     586.458    
 BOUNDARY     88   LAYER   1   ROW     6   COL    13   RATE     586.458    
 BOUNDARY     89   LAYER   1   ROW     6   COL    14   RATE     586.458    
 BOUNDARY     90   LAYER   1   ROW     6   COL    15   RATE     586.458    
 BOUNDARY     91   LAYER   1   ROW     7   COL     1   RATE     586.458    
 BOUNDARY     92   LAYER   1   ROW     7   COL     2   RATE     586.458    
 BOUNDARY     93   LAYER   1   ROW     7   COL     3   RATE     586.458    
 BOUNDARY     94   LAYER   1   ROW     7   COL     4   RATE     586.458    
 BOUNDARY     95   LAYER   1   ROW     7   COL     5   RATE     586.458    
 BOUNDARY     96   LAYER   1   ROW     7   COL     6   RATE     586.458    
 BOUNDARY     97   LAYER   1   ROW     7   COL     7   RATE     586.458    
 BOUNDARY     98   LAYER   1   ROW     7   COL     8   RATE     586.458    
 BOUNDARY     99   LAYER   1   ROW     7   COL     9   RATE     586.458    
 BOUNDARY    100   LAYER   1   ROW     7   COL    10   RATE     586.458    
 BOUNDARY    101   LAYER   1   ROW     7   COL    11   RATE     586.458    
 BOUNDARY    102   LAYER   1   ROW     7   COL    12   RATE     586.458    
 BOUNDARY    103   LAYER   1   ROW     7   COL    13   RATE     586.458    
 BOUNDARY    104   LAYER   1   ROW     7   COL    14   RATE     586.458    
 BOUNDARY    105   LAYER   1   ROW     7   COL    15   RATE     586.458    
 BOUNDARY    106   LAYER   1   ROW     8   COL     1   RATE     586.458    
 BOUNDARY    107   LAYER   1   ROW     8   COL     2   RATE     586.458    
 BOUNDARY    108   LAYER   1   ROW     8   COL     3   RATE     586.458    
 BOUNDARY    109   LAYER   1   ROW     8   COL     4   RATE     586.458    
 BOUNDARY    110   LAYER   1   ROW     8   COL     5   RATE     586.458    
 BOUNDARY    111   LAYER   1   ROW     8   COL     6   RATE     586.458    
 BOUNDARY    112   LAYER   1   ROW     8   COL     7   RATE     586.458    
 BOUNDARY    113   LAYER   1   ROW     8   COL     8   RATE     586.458    
 BOUNDARY    114   LAYER   1   ROW     8   COL     9   RATE     586.458    
 BOUNDARY    115   LAYER   1   ROW     8   COL    10   RATE     586.458    
 BOUNDARY    116   LAYER   1   ROW     8   COL    11   RATE     586.458    
 BOUNDARY    117   LAYER   1   ROW     8   COL    12   RATE     586.458    
 BOUNDARY    118   LAYER   1   ROW     8   COL    13   RATE     586.458    
 BOUNDARY    119   LAYER   1   ROW     8   COL    14   RATE     586.458    
 BOUNDARY    120   LAYER   1   ROW     8   COL    15   RATE     586.458    
 BOUNDARY    121   LAYER   1   ROW     9   COL     1   RATE     586.458    
 BOUNDARY    122   LAYER   1   ROW     9   COL     2   RATE     586.458    
 BOUNDARY    123   LAYER   1   ROW     9   COL     3   RATE     586.458    
 BOUNDARY    124   LAYER   1   ROW     9   COL     4   RATE     586.458    
 BOUNDARY    125   LAYER   1   ROW     9   COL     5   RATE     586.458    
 BOUNDARY    126   LAYER   1   ROW     9   COL     6   RATE     586.458    
 BOUNDARY    127   LAYER   1   ROW     9   COL     7   RATE     586.458    
 BOUNDARY    128   LAYER   1   ROW     9   COL     8   RATE     586.458    
 BOUNDARY    129   LAYER   1   ROW     9   COL     9   RATE     586.458    
 BOUNDARY    130   LAYER   1   ROW     9   COL    10   RATE     586.458    
 BOUNDARY    131   LAYER   1   ROW     9   COL    11   RATE     586.458    
 BOUNDARY    132   LAYER   1   ROW     9   COL    12   RATE     586.458    
 BOUNDARY    133   LAYER   1   ROW     9   COL    13   RATE     586.458    
 BOUNDARY    134   LAYER   1   ROW     9   COL    14   RATE     586.458    
 BOUNDARY    135   LAYER   1   ROW     9   COL    15   RATE     586.458    
 BOUNDARY    136   LAYER   1   ROW    10   COL     1   RATE     586.458    
 BOUNDARY    137   LAYER   1   ROW    10   COL     2   RATE     586.458    
 BOUNDARY    138   LAYER   1   ROW    10   COL     3   RATE     586.458    
 BOUNDARY    139   LAYER   1   ROW    10   COL     4   RATE     586.458    
 BOUNDARY    140   LAYER   1   ROW    10   COL     5   RATE     586.458    
 BOUNDARY    141   LAYER   1   ROW    10   COL     6   RATE     586.458    
 BOUNDARY    142   LAYER   1   ROW    10   COL     7   RATE     586.458    
 BOUNDARY    143   LAYER   1   ROW    10   COL     8   RATE     586.458    
 BOUNDARY    144   LAYER   1   ROW    10   COL     9   RATE     586.458    
 BOUNDARY    145   LAYER   1   ROW    10   COL    10   RATE     586.458    
 BOUNDARY    146   LAYER   1   ROW    10   COL    11   RATE     586.458    
 BOUNDARY    147   LAYER   1   ROW    10   COL    12   RATE     586.458    
 BOUNDARY    148   LAYER   1   ROW    10   COL    13   RATE     586.458    
 BOUNDARY    149   LAYER   1   ROW    10   COL    14   RATE     586.458    
 BOUNDARY    150   LAYER   1   ROW    10   COL    15   RATE     586.458    
 UBDSV4 SAVING ET SEGS          ON UNIT   1016 AT TIME STEP     10, STRESS PERIOD      3

 ET SEGS            PERIOD  3   STEP 10
 BOUNDARY      1   LAYER   1   ROW     1   COL     1   RATE    -2.20576    
 BOUNDARY      2   LAYER   1   ROW     1   COL     2   RATE    -9.05875    
 BOUNDARY      3   LAYER   1   ROW     1   COL     3   RATE    -50.0576    
 BOUNDARY      4   LAYER   1   ROW     1   COL     4   RATE   -100.0000    
 BOUNDARY      5   LAYER   1   ROW     1   COL     5   RATE   -100.0000    
 BOUNDARY      6   LAYER   1   ROW     1   COL     6   RATE   -100.0000    
 BOUNDARY      7   LAYER   1   ROW     1   COL     7   RATE   -100.0000    
 BOUNDARY      8   LAYER   1   ROW     1   COL     8   RATE   -100.0000    
 BOUNDARY      9   LAYER   1   ROW     1   COL     9   RATE   -100.0000    
 BOUNDARY     10   LAYER   1   ROW     1   COL    10   RATE   -100.0000    
 BOUNDARY     11   LAYER   1   ROW     1   COL    11   RATE   -100.0000    
 BOUNDARY     12   LAYER   1   ROW     1   COL    12   RATE    -16.9857    
 BOUNDARY     13   LAYER   1   ROW     1   COL    13   RATE     0.00000    
 BOUNDARY     14   LAYER   1   ROW     1   COL    14   RATE     0.00000    
 BOUNDARY     15   LAYER   1   ROW     1   COL    15   RATE     0.00000    
 BOUNDARY     16   LAYER   1   ROW     2   COL     1   RATE     0.00000    
 BOUNDARY     17   LAYER   1   ROW     2   COL     2   RATE    -4.54049    
 BOUNDARY     18   LAYER   1   ROW     2   COL     3   RATE    -28.3582    
 BOUNDARY     19   LAYER   1   ROW     2   COL     4   RATE   -100.0000    
 BOUNDARY     20   LAYER   1   ROW     2   COL     5   RATE   -100.0000    
 BOUNDARY     21   LAYER   1   ROW     2   COL     6   RATE   -100.0000    
 BOUNDARY     22   LAYER   1   ROW     2   COL     7   RATE   -100.0000    
 BOUNDARY     23   LAYER   1   ROW     2   COL     8   RATE   -100.0000    
 BOUNDARY     24   LAYER   1   ROW     2   COL     9   RATE   -100.0000    
 BOUNDARY     25   LAYER   1   ROW     2   COL    10   RATE   -100.0000    
 BOUNDARY     26   LAYER   1   ROW     2   COL    11   RATE   -100.0000    
 BOUNDARY     27   LAYER   1   ROW     2   COL    12   RATE    -18.7251    
 BOUNDARY     28   LAYER   1   ROW     2   COL    13   RATE   -0.169898    
 BOUNDARY     29   LAYER   1   ROW     2   COL    14   RATE     0.00000    
 BOUNDARY     30   LAYER   1   ROW     2   COL    15   RATE     0.00000    
 BOUNDARY     31   LAYER   1   ROW     3   COL     1   RATE     0.00000    
 BOUNDARY     32   LAYER   1   ROW     3   COL     2   RATE     0.00000    
 BOUNDARY     33   LAYER   1   ROW     3   COL     3   RATE    -22.4627    
 BOUNDARY     34   LAYER   1   ROW     3   COL     4   RATE   -100.0000    
 BOUNDARY     35   LAYER   1   ROW     3   COL     5   RATE   -100.0000    
 BOUNDARY     36   LAYER   1   ROW     3   COL     6   RATE   -100.0000    
 BOUNDARY     37   LAYER   1   ROW     3   COL     7   RATE   -100.0000    
 BOUNDARY     38   LAYER   1   ROW     3   COL     8   RATE   -100.0000    
 BOUNDARY     39   LAYER   1   ROW     3   COL     9   RATE   -100.0000    
 BOUNDARY     40   LAYER   1   ROW     3   COL    10   RATE   -100.0000    
 BOUNDARY     41   LAYER   1   ROW     3   COL    11   RATE   -100.0000    
 BOUNDARY     42   LAYER   1   ROW     3   COL    12   RATE    -21.6592    
 BOUNDARY     43   LAYER   1   ROW     3   COL    13   RATE    -1.95776    
 BOUNDARY     44   LAYER   1   ROW     3   COL    14   RATE     0.00000    
 BOUNDARY     45   LAYER   1   ROW     3   COL    15   RATE     0.00000    
 BOUNDARY     46   LAYER   1   ROW     4   COL     1   RATE     0.00000    
 BOUNDARY     47   LAYER   1   ROW     4   COL     2   RATE    -3.02849    
 BOUNDARY     48   LAYER   1   ROW     4   COL     3   RATE    -26.3357    
 BOUNDARY     49   LAYER   1   ROW     4   COL     4   RATE   -100.0000    
 BOUNDARY     50   LAYER   1   ROW     4   COL     5   RATE   -100.0000    
 BOUNDARY     51   LAYER   1   ROW     4   COL     6   RATE   -100.0000    
 BOUNDARY     52   LAYER   1   ROW     4   COL     7   RATE   -100.0000    
 BOUNDARY     53   LAYER   1   ROW     4   COL     8   RATE   -100.0000    
 BOUNDARY     54   LAYER   1   ROW     4   COL     9   RATE   -100.0000    
 BOUNDARY     55   LAYER   1   ROW     4   COL    10   RATE   -100.0000    
 BOUNDARY     56   LAYER   1   ROW     4   COL    11   RATE   -100.0000    
 BOUNDARY     57   LAYER   1   ROW     4   COL    12   RATE    -24.4582    
 BOUNDARY     58   LAYER   1   ROW     4   COL    13   RATE    -3.41869    
 BOUNDARY     59   LAYER   1   ROW     4   COL    14   RATE     0.00000    
 BOUNDARY     60   LAYER   1   ROW     4   COL    15   RATE     0.00000    
 BOUNDARY     61   LAYER   1   ROW     5   COL     1   RATE     0.00000    
 BOUNDARY     62   LAYER   1   ROW     5   COL     2   RATE    -6.00266    
 BOUNDARY     63   LAYER   1   ROW     5   COL     3   RATE    -31.6879    
 BOUNDARY     64   LAYER   1   ROW     5   COL     4   RATE   -100.0000    
 BOUNDARY     65   LAYER   1   ROW     5   COL     5   RATE   -100.0000    
 BOUNDARY     66   LAYER   1   ROW     5   COL     6   RATE   -100.0000    
 BOUNDARY     67   LAYER   1   ROW     5   COL     7   RATE   -100.0000    
 BOUNDARY     68   LAYER   1   ROW     5   COL     8   RATE   -100.0000    
 BOUNDARY     69   LAYER   1   ROW     5   COL     9   RATE   -100.0000    
 BOUNDARY     70   LAYER   1   ROW     5   COL    10   RATE   -100.0000    
 BOUNDARY     71   LAYER   1   ROW     5   COL    11   RATE   -100.0000    
 BOUNDARY     72   LAYER   1   ROW     5   COL    12   RATE    -26.3942    
 BOUNDARY     73   LAYER   1   ROW     5   COL    13   RATE    -4.32285    
 BOUNDARY     74   LAYER   1   ROW     5   COL    14   RATE     0.00000    
 BOUNDARY     75   LAYER   1   ROW     5   COL    15   RATE     0.00000    
 BOUNDARY     76   LAYER   1   ROW     6   COL     1   RATE     0.00000    
 BOUNDARY     77   LAYER   1   ROW     6   COL     2   RATE    -4.57219    
 BOUNDARY     78   LAYER   1   ROW     6   COL     3   RATE    -35.5410    
 BOUNDARY     79   LAYER   1   ROW     6   COL     4   RATE   -100.0000    
 BOUNDARY     80   LAYER   1   ROW     6   COL     5   RATE   -100.0000    
 BOUNDARY     81   LAYER   1   ROW     6   COL     6   RATE   -100.0000    
 BOUNDARY     82   LAYER   1   ROW     6   COL     7   RATE   -100.0000    
 BOUNDARY     83   LAYER   1   ROW     6   COL     8   RATE   -100.0000    
 BOUNDARY     84   LAYER   1   ROW     6   COL     9   RATE   -100.0000    
 BOUNDARY     85   LAYER   1   ROW     6   COL    10   RATE   -100.0000    
 BOUNDARY     86   LAYER   1   ROW     6   COL    11   RATE   -100.0000    
 BOUNDARY     87   LAYER   1   ROW     6   COL    12   RATE    -27.0432    
 BOUNDARY     88   LAYER   1   ROW     6   COL    13   RATE    -4.28089    
 BOUNDARY     89   LAYER   1   ROW     6   COL    14   RATE     0.00000    
 BOUNDARY     90   LAYER   1   ROW     6   COL    15   RATE     0.00000    
 BOUNDARY     91   LAYER   1   ROW     7   COL     1   RATE     0.00000    
 BOUNDARY     92   LAYER   1   ROW     7   COL     2   RATE    -1.07136    
 BOUNDARY     93   LAYER   1   ROW     7   COL     3   RATE    -42.4127    
 BOUNDARY     94   LAYER   1   ROW     7   COL     4   RATE   -100.0000    
 BOUNDARY     95   LAYER   1   ROW     7   COL     5   RATE   -100.0000    
 BOUNDARY     96   LAYER   1   ROW     7   COL     6   RATE   -100.0000    
 BOUNDARY     97   LAYER   1   ROW     7   COL     7   RATE   -100.0000    
 BOUNDARY     98   LAYER   1   ROW     7   COL     8   RATE   -100.0000    
 BOUNDARY     99   LAYER   1   ROW     7   COL     9   RATE   -100.0000    
 BOUNDARY    100   LAYER   1   ROW     7   COL    10   RATE   -100.0000    
 BOUNDARY    101   LAYER   1   ROW     7   COL    11   RATE   -100.0000    
 BOUNDARY    102   LAYER   1   ROW     7   COL    12   RATE    -26.8830    
 BOUNDARY    103   LAYER   1   ROW     7   COL    13   RATE    -3.55182    
 BOUNDARY    104   LAYER   1   ROW     7   COL    14   RATE     0.00000    
 BOUNDARY    105   LAYER   1   ROW     7   COL    15   RATE     0.00000    
 BOUNDARY    106   LAYER   1   ROW     8   COL     1   RATE     0.00000    
 BOUNDARY    107   LAYER   1   ROW     8   COL     2   RATE    -11.4530    
 BOUNDARY    108   LAYER   1   ROW     8   COL     3   RATE   -100.0000    
 BOUNDARY    109   LAYER   1   ROW     8   COL     4   RATE   -100.0000    
 BOUNDARY    110   LAYER   1   ROW     8   COL     5   RATE   -100.0000    
 BOUNDARY    111   LAYER   1   ROW     8   COL     6   RATE   -100.0000    
 BOUNDARY    112   LAYER   1   ROW     8   COL     7   RATE   -100.0000    
 BOUNDARY    113   LAYER   1   ROW     8   COL     8   RATE   -100.0000    
 BOUNDARY    114   LAYER   1   ROW     8   COL     9   RATE   -100.0000    
 BOUNDARY    115   LAYER   1   ROW     8   COL    10   RATE   -100.0000    
 BOUNDARY    116   LAYER   1   ROW     8   COL    11   RATE   -100.0000    
 BOUNDARY    117   LAYER   1   ROW     8   COL    12   RATE    -27.2727    
 BOUNDARY    118   LAYER   1   ROW     8   COL    13   RATE    -3.55862    
 BOUNDARY    119   LAYER   1   ROW     8   COL    14   RATE     0.00000    
 BOUNDARY    120   LAYER   1   ROW     8   COL    15   RATE     0.00000    
 BOUNDARY    121   LAYER   1   ROW     9   COL     1   RATE    -19.0349    
 BOUNDARY    122   LAYER   1   ROW     9   COL     2   RATE    -61.5195    
 BOUNDARY    123   LAYER   1   ROW     9   COL     3   RATE   -100.0000    
 BOUNDARY    124   LAYER   1   ROW     9   COL     4   RATE   -100.0000    
 BOUNDARY    125   LAYER   1   ROW     9   COL     5   RATE   -100.0000    
 BOUNDARY    126   LAYER   1   ROW     9   COL     6   RATE   -100.0000    
 BOUNDARY    127   LAYER   1   ROW     9   COL     7   RATE   -100.0000    
 BOUNDARY    128   LAYER   1   ROW     9   COL     8   RATE   -100.0000    
 BOUNDARY    129   LAYER   1   ROW     9   COL     9   RATE   -100.0000    
 BOUNDARY    130   LAYER   1   ROW     9   COL    10   RATE   -100.0000    
 BOUNDARY    131   LAYER   1   ROW     9   COL    11   RATE   -100.0000    
 BOUNDARY    132   LAYER   1   ROW     9   COL    12   RATE    -28.3735    
 BOUNDARY    133   LAYER   1   ROW     9   COL    13   RATE    -4.38539    
 BOUNDARY    134   LAYER   1   ROW     9   COL    14   RATE     0.00000    
 BOUNDARY    135   LAYER   1   ROW     9   COL    15   RATE     0.00000    
 BOUNDARY    136   LAYER   1   ROW    10   COL     1   RATE    -69.7328    
 BOUNDARY    137   LAYER   1   ROW    10   COL     2   RATE   -100.0000    
 BOUNDARY    138   LAYER   1   ROW    10   COL     3   RATE   -100.0000    
 BOUNDARY    139   LAYER   1   ROW    10   COL     4   RATE   -100.0000    
 BOUNDARY    140   LAYER   1   ROW    10   COL     5   RATE   -100.0000    
 BOUNDARY    141   LAYER   1   ROW    10   COL     6   RATE   -100.0000    
 BOUNDARY    142   LAYER   1   ROW    10   COL     7   RATE   -100.0000    
 BOUNDARY    143   LAYER   1   ROW    10   COL     8   RATE   -100.0000    
 BOUNDARY    144   LAYER   1   ROW    10   COL     9   RATE   -100.0000    
 BOUNDARY    145   LAYER   1   ROW    10   COL    10   RATE   -100.0000    
 BOUNDARY    146   LAYER   1   ROW    10   COL    11   RATE   -100.0000    
 BOUNDARY    147   LAYER   1   ROW    10   COL    12   RATE    -29.1701    
 BOUNDARY    148   LAYER   1   ROW    10   COL    13   RATE    -4.91516    
 BOUNDARY    149   LAYER   1   ROW    10   COL    14   RATE     0.00000    
 BOUNDARY    150   LAYER   1   ROW    10   COL    15   RATE     0.00000    

 HEAD WILL BE SAVED ON UNIT 1017 AT END OF TIME STEP   10, STRESS PERIOD    3
WEL   no.    2 value from time series:   0.0000     for time:  42.00     to  43.00    
WEL   no.    3 value from time series:   0.0000     for time:  42.00     to  43.00    
RIV   no.    1 value from time series:   101.00     for time:  42.00     to  43.00    
RIV   no.    2 value from time series:   101.00     for time:  42.00     to  43.00    
RIV   no.    3 value from time series:   111.50     for time:  42.00     to  43.00    
RIV   no.    4 value from time series:   111.50     for time:  42.00     to  43.00    
RIV   no.    5 value from time series:   115.10     for time:  42.00     to  43.00    
RIV   no.    6 value from time series:   115.10     for time:  42.00     to  43.00    
RIV   no.    7 value from time series:   104.00     for time:  42.00     to  43.00    
RIV   no.    8 value from time series:   104.00     for time:  42.00     to  43.00    
RIV   no.    9 value from time series:   113.50     for time:  42.00     to  43.00    
RIV   no.   10 value from time series:   113.50     for time:  42.00     to  43.00    
WEL   no.    2 value from time series:   0.0000     for time:  42.00     to  43.00    
WEL   no.    3 value from time series:   0.0000     for time:  42.00     to  43.00    
RIV   no.    1 value from time series:   101.00     for time:  42.00     to  43.00    
RIV   no.    2 value from time series:   101.00     for time:  42.00     to  43.00    
RIV   no.    3 value from time series:   111.50     for time:  42.00     to  43.00    
RIV   no.    4 value from time series:   111.50     for time:  42.00     to  43.00    
RIV   no.    5 value from time series:   115.10     for time:  42.00     to  43.00    
RIV   no.    6 value from time series:   115.10     for time:  42.00     to  43.00    
RIV   no.    7 value from time series:   104.00     for time:  42.00     to  43.00    
RIV   no.    8 value from time series:   104.00     for time:  42.00     to  43.00    
RIV   no.    9 value from time series:   113.50     for time:  42.00     to  43.00    
RIV   no.   10 value from time series:   113.50     for time:  42.00     to  43.00    

 NO OUTPUT CONTROL FOR STRESS PERIOD    3   TIME STEP   11
WEL   no.    2 value from time series:   0.0000     for time:  43.00     to  44.00    
WEL   no.    3 value from time series:   0.0000     for time:  43.00     to  44.00    
RIV   no.    1 value from time series:   101.00     for time:  43.00     to  44.00    
RIV   no.    2 value from time series:   101.00     for time:  43.00     to  44.00    
RIV   no.    3 value from time series:   111.50     for time:  43.00     to  44.00    
RIV   no.    4 value from time series:   111.50     for time:  43.00     to  44.00    
RIV   no.    5 value from time series:   115.10     for time:  43.00     to  44.00    
RIV   no.    6 value from time series:   115.10     for time:  43.00     to  44.00    
RIV   no.    7 value from time series:   104.00     for time:  43.00     to  44.00    
RIV   no.    8 value from time series:   104.00     for time:  43.00     to  44.00    
RIV   no.    9 value from time series:   113.50     for time:  43.00     to  44.00    
RIV   no.   10 value from time series:   113.50     for time:  43.00     to  44.00    
WEL   no.    2 value from time series:   0.0000     for time:  43.00     to  44.00    
WEL   no.    3 value from time series:   0.0000     for time:  43.00     to  44.00    
RIV   no.    1 value from time series:   101.00     for time:  43.00     to  44.00    
RIV   no.    2 value from time series:   101.00     for time:  43.00     to  44.00    
RIV   no.    3 value from time series:   111.50     for time:  43.00     to  44.00    
RIV   no.    4 value from time series:   111.50     for time:  43.00     to  44.00    
RIV   no.    5 value from time series:   115.10     for time:  43.00     to  44.00    
RIV   no.    6 value from time series:   115.10     for time:  43.00     to  44.00    
RIV   no.    7 value from time series:   104.00     for time:  43.00     to  44.00    
RIV   no.    8 value from time series:   104.00     for time:  43.00     to  44.00    
RIV   no.    9 value from time series:   113.50     for time:  43.00     to  44.00    
RIV   no.   10 value from time series:   113.50     for time:  43.00     to  44.00    

 NO OUTPUT CONTROL FOR STRESS PERIOD    3   TIME STEP   12
WEL   no.    2 value from time series:   0.0000     for time:  44.00     to  45.00    
WEL   no.    3 value from time series:   0.0000     for time:  44.00     to  45.00    
RIV   no.    1 value from time series:   101.00     for time:  44.00     to  45.00    
RIV   no.    2 value from time series:   101.00     for time:  44.00     to  45.00    
RIV   no.    3 value from time series:   111.50     for time:  44.00     to  45.00    
RIV   no.    4 value from time series:   111.50     for time:  44.00     to  45.00    
RIV   no.    5 value from time series:   115.10     for time:  44.00     to  45.00    
RIV   no.    6 value from time series:   115.10     for time:  44.00     to  45.00    
RIV   no.    7 value from time series:   104.00     for time:  44.00     to  45.00    
RIV   no.    8 value from time series:   104.00     for time:  44.00     to  45.00    
RIV   no.    9 value from time series:   113.50     for time:  44.00     to  45.00    
RIV   no.   10 value from time series:   113.50     for time:  44.00     to  45.00    
WEL   no.    2 value from time series:   0.0000     for time:  44.00     to  45.00    
WEL   no.    3 value from time series:   0.0000     for time:  44.00     to  45.00    
RIV   no.    1 value from time series:   101.00     for time:  44.00     to  45.00    
RIV   no.    2 value from time series:   101.00     for time:  44.00     to  45.00    
RIV   no.    3 value from time series:   111.50     for time:  44.00     to  45.00    
RIV   no.    4 value from time series:   111.50     for time:  44.00     to  45.00    
RIV   no.    5 value from time series:   115.10     for time:  44.00     to  45.00    
RIV   no.    6 value from time series:   115.10     for time:  44.00     to  45.00    
RIV   no.    7 value from time series:   104.00     for time:  44.00     to  45.00    
RIV   no.    8 value from time series:   104.00     for time:  44.00     to  45.00    
RIV   no.    9 value from time series:   113.50     for time:  44.00     to  45.00    
RIV   no.   10 value from time series:   113.50     for time:  44.00     to  45.00    

 NO OUTPUT CONTROL FOR STRESS PERIOD    3   TIME STEP   13
WEL   no.    2 value from time series:   0.0000     for time:  45.00     to  46.00    
WEL   no.    3 value from time series:   0.0000     for time:  45.00     to  46.00    
RIV   no.    1 value from time series:   101.00     for time:  45.00     to  46.00    
RIV   no.    2 value from time series:   101.00     for time:  45.00     to  46.00    
RIV   no.    3 value from time series:   111.50     for time:  45.00     to  46.00    
RIV   no.    4 value from time series:   111.50     for time:  45.00     to  46.00    
RIV   no.    5 value from time series:   115.10     for time:  45.00     to  46.00    
RIV   no.    6 value from time series:   115.10     for time:  45.00     to  46.00    
RIV   no.    7 value from time series:   104.00     for time:  45.00     to  46.00    
RIV   no.    8 value from time series:   104.00     for time:  45.00     to  46.00    
RIV   no.    9 value from time series:   113.50     for time:  45.00     to  46.00    
RIV   no.   10 value from time series:   113.50     for time:  45.00     to  46.00    
WEL   no.    2 value from time series:   0.0000     for time:  45.00     to  46.00    
WEL   no.    3 value from time series:   0.0000     for time:  45.00     to  46.00    
RIV   no.    1 value from time series:   101.00     for time:  45.00     to  46.00    
RIV   no.    2 value from time series:   101.00     for time:  45.00     to  46.00    
RIV   no.    3 value from time series:   111.50     for time:  45.00     to  46.00    
RIV   no.    4 value from time series:   111.50     for time:  45.00     to  46.00    
RIV   no.    5 value from time series:   115.10     for time:  45.00     to  46.00    
RIV   no.    6 value from time series:   115.10     for time:  45.00     to  46.00    
RIV   no.    7 value from time series:   104.00     for time:  45.00     to  46.00    
RIV   no.    8 value from time series:   104.00     for time:  45.00     to  46.00    
RIV   no.    9 value from time series:   113.50     for time:  45.00     to  46.00    
RIV   no.   10 value from time series:   113.50     for time:  45.00     to  46.00    

 NO OUTPUT CONTROL FOR STRESS PERIOD    3   TIME STEP   14
WEL   no.    2 value from time series:   0.0000     for time:  46.00     to  47.00    
WEL   no.    3 value from time series:   0.0000     for time:  46.00     to  47.00    
RIV   no.    1 value from time series:   101.00     for time:  46.00     to  47.00    
RIV   no.    2 value from time series:   101.00     for time:  46.00     to  47.00    
RIV   no.    3 value from time series:   111.50     for time:  46.00     to  47.00    
RIV   no.    4 value from time series:   111.50     for time:  46.00     to  47.00    
RIV   no.    5 value from time series:   115.10     for time:  46.00     to  47.00    
RIV   no.    6 value from time series:   115.10     for time:  46.00     to  47.00    
RIV   no.    7 value from time series:   104.00     for time:  46.00     to  47.00    
RIV   no.    8 value from time series:   104.00     for time:  46.00     to  47.00    
RIV   no.    9 value from time series:   113.50     for time:  46.00     to  47.00    
RIV   no.   10 value from time series:   113.50     for time:  46.00     to  47.00    
WEL   no.    2 value from time series:   0.0000     for time:  46.00     to  47.00    
WEL   no.    3 value from time series:   0.0000     for time:  46.00     to  47.00    
RIV   no.    1 value from time series:   101.00     for time:  46.00     to  47.00    
RIV   no.    2 value from time series:   101.00     for time:  46.00     to  47.00    
RIV   no.    3 value from time series:   111.50     for time:  46.00     to  47.00    
RIV   no.    4 value from time series:   111.50     for time:  46.00     to  47.00    
RIV   no.    5 value from time series:   115.10     for time:  46.00     to  47.00    
RIV   no.    6 value from time series:   115.10     for time:  46.00     to  47.00    
RIV   no.    7 value from time series:   104.00     for time:  46.00     to  47.00    
RIV   no.    8 value from time series:   104.00     for time:  46.00     to  47.00    
RIV   no.    9 value from time series:   113.50     for time:  46.00     to  47.00    
RIV   no.   10 value from time series:   113.50     for time:  46.00     to  47.00    

 NO OUTPUT CONTROL FOR STRESS PERIOD    3   TIME STEP   15
WEL   no.    2 value from time series:   0.0000     for time:  47.00     to  48.00    
WEL   no.    3 value from time series:   0.0000     for time:  47.00     to  48.00    
RIV   no.    1 value from time series:   101.00     for time:  47.00     to  48.00    
RIV   no.    2 value from time series:   101.00     for time:  47.00     to  48.00    
RIV   no.    3 value from time series:   111.50     for time:  47.00     to  48.00    
RIV   no.    4 value from time series:   111.50     for time:  47.00     to  48.00    
RIV   no.    5 value from time series:   115.10     for time:  47.00     to  48.00    
RIV   no.    6 value from time series:   115.10     for time:  47.00     to  48.00    
RIV   no.    7 value from time series:   104.00     for time:  47.00     to  48.00    
RIV   no.    8 value from time series:   104.00     for time:  47.00     to  48.00    
RIV   no.    9 value from time series:   113.50     for time:  47.00     to  48.00    
RIV   no.   10 value from time series:   113.50     for time:  47.00     to  48.00    
WEL   no.    2 value from time series:   0.0000     for time:  47.00     to  48.00    
WEL   no.    3 value from time series:   0.0000     for time:  47.00     to  48.00    
RIV   no.    1 value from time series:   101.00     for time:  47.00     to  48.00    
RIV   no.    2 value from time series:   101.00     for time:  47.00     to  48.00    
RIV   no.    3 value from time series:   111.50     for time:  47.00     to  48.00    
RIV   no.    4 value from time series:   111.50     for time:  47.00     to  48.00    
RIV   no.    5 value from time series:   115.10     for time:  47.00     to  48.00    
RIV   no.    6 value from time series:   115.10     for time:  47.00     to  48.00    
RIV   no.    7 value from time series:   104.00     for time:  47.00     to  48.00    
RIV   no.    8 value from time series:   104.00     for time:  47.00     to  48.00    
RIV   no.    9 value from time series:   113.50     for time:  47.00     to  48.00    
RIV   no.   10 value from time series:   113.50     for time:  47.00     to  48.00    

 NO OUTPUT CONTROL FOR STRESS PERIOD    3   TIME STEP   16
WEL   no.    2 value from time series:   0.0000     for time:  48.00     to  49.00    
WEL   no.    3 value from time series:   0.0000     for time:  48.00     to  49.00    
RIV   no.    1 value from time series:   101.00     for time:  48.00     to  49.00    
RIV   no.    2 value from time series:   101.00     for time:  48.00     to  49.00    
RIV   no.    3 value from time series:   111.50     for time:  48.00     to  49.00    
RIV   no.    4 value from time series:   111.50     for time:  48.00     to  49.00    
RIV   no.    5 value from time series:   115.10     for time:  48.00     to  49.00    
RIV   no.    6 value from time series:   115.10     for time:  48.00     to  49.00    
RIV   no.    7 value from time series:   104.00     for time:  48.00     to  49.00    
RIV   no.    8 value from time series:   104.00     for time:  48.00     to  49.00    
RIV   no.    9 value from time series:   113.50     for time:  48.00     to  49.00    
RIV   no.   10 value from time series:   113.50     for time:  48.00     to  49.00    
WEL   no.    2 value from time series:   0.0000     for time:  48.00     to  49.00    
WEL   no.    3 value from time series:   0.0000     for time:  48.00     to  49.00    
RIV   no.    1 value from time series:   101.00     for time:  48.00     to  49.00    
RIV   no.    2 value from time series:   101.00     for time:  48.00     to  49.00    
RIV   no.    3 value from time series:   111.50     for time:  48.00     to  49.00    
RIV   no.    4 value from time series:   111.50     for time:  48.00     to  49.00    
RIV   no.    5 value from time series:   115.10     for time:  48.00     to  49.00    
RIV   no.    6 value from time series:   115.10     for time:  48.00     to  49.00    
RIV   no.    7 value from time series:   104.00     for time:  48.00     to  49.00    
RIV   no.    8 value from time series:   104.00     for time:  48.00     to  49.00    
RIV   no.    9 value from time series:   113.50     for time:  48.00     to  49.00    
RIV   no.   10 value from time series:   113.50     for time:  48.00     to  49.00    

 NO OUTPUT CONTROL FOR STRESS PERIOD    3   TIME STEP   17
WEL   no.    2 value from time series:   0.0000     for time:  49.00     to  50.00    
WEL   no.    3 value from time series:   0.0000     for time:  49.00     to  50.00    
RIV   no.    1 value from time series:   101.00     for time:  49.00     to  50.00    
RIV   no.    2 value from time series:   101.00     for time:  49.00     to  50.00    
RIV   no.    3 value from time series:   111.50     for time:  49.00     to  50.00    
RIV   no.    4 value from time series:   111.50     for time:  49.00     to  50.00    
RIV   no.    5 value from time series:   115.10     for time:  49.00     to  50.00    
RIV   no.    6 value from time series:   115.10     for time:  49.00     to  50.00    
RIV   no.    7 value from time series:   104.00     for time:  49.00     to  50.00    
RIV   no.    8 value from time series:   104.00     for time:  49.00     to  50.00    
RIV   no.    9 value from time series:   113.50     for time:  49.00     to  50.00    
RIV   no.   10 value from time series:   113.50     for time:  49.00     to  50.00    
WEL   no.    2 value from time series:   0.0000     for time:  49.00     to  50.00    
WEL   no.    3 value from time series:   0.0000     for time:  49.00     to  50.00    
RIV   no.    1 value from time series:   101.00     for time:  49.00     to  50.00    
RIV   no.    2 value from time series:   101.00     for time:  49.00     to  50.00    
RIV   no.    3 value from time series:   111.50     for time:  49.00     to  50.00    
RIV   no.    4 value from time series:   111.50     for time:  49.00     to  50.00    
RIV   no.    5 value from time series:   115.10     for time:  49.00     to  50.00    
RIV   no.    6 value from time series:   115.10     for time:  49.00     to  50.00    
RIV   no.    7 value from time series:   104.00     for time:  49.00     to  50.00    
RIV   no.    8 value from time series:   104.00     for time:  49.00     to  50.00    
RIV   no.    9 value from time series:   113.50     for time:  49.00     to  50.00    
RIV   no.   10 value from time series:   113.50     for time:  49.00     to  50.00    

 NO OUTPUT CONTROL FOR STRESS PERIOD    3   TIME STEP   18
WEL   no.    2 value from time series:   0.0000     for time:  50.00     to  51.00    
WEL   no.    3 value from time series:   0.0000     for time:  50.00     to  51.00    
RIV   no.    1 value from time series:   101.00     for time:  50.00     to  51.00    
RIV   no.    2 value from time series:   101.00     for time:  50.00     to  51.00    
RIV   no.    3 value from time series:   111.50     for time:  50.00     to  51.00    
RIV   no.    4 value from time series:   111.50     for time:  50.00     to  51.00    
RIV   no.    5 value from time series:   115.10     for time:  50.00     to  51.00    
RIV   no.    6 value from time series:   115.10     for time:  50.00     to  51.00    
RIV   no.    7 value from time series:   104.00     for time:  50.00     to  51.00    
RIV   no.    8 value from time series:   104.00     for time:  50.00     to  51.00    
RIV   no.    9 value from time series:   113.50     for time:  50.00     to  51.00    
RIV   no.   10 value from time series:   113.50     for time:  50.00     to  51.00    
WEL   no.    2 value from time series:   0.0000     for time:  50.00     to  51.00    
WEL   no.    3 value from time series:   0.0000     for time:  50.00     to  51.00    
RIV   no.    1 value from time series:   101.00     for time:  50.00     to  51.00    
RIV   no.    2 value from time series:   101.00     for time:  50.00     to  51.00    
RIV   no.    3 value from time series:   111.50     for time:  50.00     to  51.00    
RIV   no.    4 value from time series:   111.50     for time:  50.00     to  51.00    
RIV   no.    5 value from time series:   115.10     for time:  50.00     to  51.00    
RIV   no.    6 value from time series:   115.10     for time:  50.00     to  51.00    
RIV   no.    7 value from time series:   104.00     for time:  50.00     to  51.00    
RIV   no.    8 value from time series:   104.00     for time:  50.00     to  51.00    
RIV   no.    9 value from time series:   113.50     for time:  50.00     to  51.00    
RIV   no.   10 value from time series:   113.50     for time:  50.00     to  51.00    

 NO OUTPUT CONTROL FOR STRESS PERIOD    3   TIME STEP   19
WEL   no.    2 value from time series:   0.0000     for time:  51.00     to  52.00    
WEL   no.    3 value from time series:   0.0000     for time:  51.00     to  52.00    
RIV   no.    1 value from time series:   101.00     for time:  51.00     to  52.00    
RIV   no.    2 value from time series:   101.00     for time:  51.00     to  52.00    
RIV   no.    3 value from time series:   111.50     for time:  51.00     to  52.00    
RIV   no.    4 value from time series:   111.50     for time:  51.00     to  52.00    
RIV   no.    5 value from time series:   115.10     for time:  51.00     to  52.00    
RIV   no.    6 value from time series:   115.10     for time:  51.00     to  52.00    
RIV   no.    7 value from time series:   104.00     for time:  51.00     to  52.00    
RIV   no.    8 value from time series:   104.00     for time:  51.00     to  52.00    
RIV   no.    9 value from time series:   113.50     for time:  51.00     to  52.00    
RIV   no.   10 value from time series:   113.50     for time:  51.00     to  52.00    
WEL   no.    2 value from time series:   0.0000     for time:  51.00     to  52.00    
WEL   no.    3 value from time series:   0.0000     for time:  51.00     to  52.00    
RIV   no.    1 value from time series:   101.00     for time:  51.00     to  52.00    
RIV   no.    2 value from time series:   101.00     for time:  51.00     to  52.00    
RIV   no.    3 value from time series:   111.50     for time:  51.00     to  52.00    
RIV   no.    4 value from time series:   111.50     for time:  51.00     to  52.00    
RIV   no.    5 value from time series:   115.10     for time:  51.00     to  52.00    
RIV   no.    6 value from time series:   115.10     for time:  51.00     to  52.00    
RIV   no.    7 value from time series:   104.00     for time:  51.00     to  52.00    
RIV   no.    8 value from time series:   104.00     for time:  51.00     to  52.00    
RIV   no.    9 value from time series:   113.50     for time:  51.00     to  52.00    
RIV   no.   10 value from time series:   113.50     for time:  51.00     to  52.00    

 NO OUTPUT CONTROL FOR STRESS PERIOD    3   TIME STEP   20
WEL   no.    2 value from time series:   0.0000     for time:  52.00     to  53.00    
WEL   no.    3 value from time series:   0.0000     for time:  52.00     to  53.00    
RIV   no.    1 value from time series:   101.00     for time:  52.00     to  53.00    
RIV   no.    2 value from time series:   101.00     for time:  52.00     to  53.00    
RIV   no.    3 value from time series:   111.50     for time:  52.00     to  53.00    
RIV   no.    4 value from time series:   111.50     for time:  52.00     to  53.00    
RIV   no.    5 value from time series:   115.10     for time:  52.00     to  53.00    
RIV   no.    6 value from time series:   115.10     for time:  52.00     to  53.00    
RIV   no.    7 value from time series:   104.00     for time:  52.00     to  53.00    
RIV   no.    8 value from time series:   104.00     for time:  52.00     to  53.00    
RIV   no.    9 value from time series:   113.50     for time:  52.00     to  53.00    
RIV   no.   10 value from time series:   113.50     for time:  52.00     to  53.00    
WEL   no.    2 value from time series:   0.0000     for time:  52.00     to  53.00    
WEL   no.    3 value from time series:   0.0000     for time:  52.00     to  53.00    
RIV   no.    1 value from time series:   101.00     for time:  52.00     to  53.00    
RIV   no.    2 value from time series:   101.00     for time:  52.00     to  53.00    
RIV   no.    3 value from time series:   111.50     for time:  52.00     to  53.00    
RIV   no.    4 value from time series:   111.50     for time:  52.00     to  53.00    
RIV   no.    5 value from time series:   115.10     for time:  52.00     to  53.00    
RIV   no.    6 value from time series:   115.10     for time:  52.00     to  53.00    
RIV   no.    7 value from time series:   104.00     for time:  52.00     to  53.00    
RIV   no.    8 value from time series:   104.00     for time:  52.00     to  53.00    
RIV   no.    9 value from time series:   113.50     for time:  52.00     to  53.00    
RIV   no.   10 value from time series:   113.50     for time:  52.00     to  53.00    

 NO OUTPUT CONTROL FOR STRESS PERIOD    3   TIME STEP   21
WEL   no.    2 value from time series:   0.0000     for time:  53.00     to  54.00    
WEL   no.    3 value from time series:   0.0000     for time:  53.00     to  54.00    
RIV   no.    1 value from time series:   101.00     for time:  53.00     to  54.00    
RIV   no.    2 value from time series:   101.00     for time:  53.00     to  54.00    
RIV   no.    3 value from time series:   111.50     for time:  53.00     to  54.00    
RIV   no.    4 value from time series:   111.50     for time:  53.00     to  54.00    
RIV   no.    5 value from time series:   115.10     for time:  53.00     to  54.00    
RIV   no.    6 value from time series:   115.10     for time:  53.00     to  54.00    
RIV   no.    7 value from time series:   104.00     for time:  53.00     to  54.00    
RIV   no.    8 value from time series:   104.00     for time:  53.00     to  54.00    
RIV   no.    9 value from time series:   113.50     for time:  53.00     to  54.00    
RIV   no.   10 value from time series:   113.50     for time:  53.00     to  54.00    
WEL   no.    2 value from time series:   0.0000     for time:  53.00     to  54.00    
WEL   no.    3 value from time series:   0.0000     for time:  53.00     to  54.00    
RIV   no.    1 value from time series:   101.00     for time:  53.00     to  54.00    
RIV   no.    2 value from time series:   101.00     for time:  53.00     to  54.00    
RIV   no.    3 value from time series:   111.50     for time:  53.00     to  54.00    
RIV   no.    4 value from time series:   111.50     for time:  53.00     to  54.00    
RIV   no.    5 value from time series:   115.10     for time:  53.00     to  54.00    
RIV   no.    6 value from time series:   115.10     for time:  53.00     to  54.00    
RIV   no.    7 value from time series:   104.00     for time:  53.00     to  54.00    
RIV   no.    8 value from time series:   104.00     for time:  53.00     to  54.00    
RIV   no.    9 value from time series:   113.50     for time:  53.00     to  54.00    
RIV   no.   10 value from time series:   113.50     for time:  53.00     to  54.00    

 NO OUTPUT CONTROL FOR STRESS PERIOD    3   TIME STEP   22
WEL   no.    2 value from time series:   0.0000     for time:  54.00     to  55.00    
WEL   no.    3 value from time series:   0.0000     for time:  54.00     to  55.00    
RIV   no.    1 value from time series:   101.00     for time:  54.00     to  55.00    
RIV   no.    2 value from time series:   101.00     for time:  54.00     to  55.00    
RIV   no.    3 value from time series:   111.50     for time:  54.00     to  55.00    
RIV   no.    4 value from time series:   111.50     for time:  54.00     to  55.00    
RIV   no.    5 value from time series:   115.10     for time:  54.00     to  55.00    
RIV   no.    6 value from time series:   115.10     for time:  54.00     to  55.00    
RIV   no.    7 value from time series:   104.00     for time:  54.00     to  55.00    
RIV   no.    8 value from time series:   104.00     for time:  54.00     to  55.00    
RIV   no.    9 value from time series:   113.50     for time:  54.00     to  55.00    
RIV   no.   10 value from time series:   113.50     for time:  54.00     to  55.00    
WEL   no.    2 value from time series:   0.0000     for time:  54.00     to  55.00    
WEL   no.    3 value from time series:   0.0000     for time:  54.00     to  55.00    
RIV   no.    1 value from time series:   101.00     for time:  54.00     to  55.00    
RIV   no.    2 value from time series:   101.00     for time:  54.00     to  55.00    
RIV   no.    3 value from time series:   111.50     for time:  54.00     to  55.00    
RIV   no.    4 value from time series:   111.50     for time:  54.00     to  55.00    
RIV   no.    5 value from time series:   115.10     for time:  54.00     to  55.00    
RIV   no.    6 value from time series:   115.10     for time:  54.00     to  55.00    
RIV   no.    7 value from time series:   104.00     for time:  54.00     to  55.00    
RIV   no.    8 value from time series:   104.00     for time:  54.00     to  55.00    
RIV   no.    9 value from time series:   113.50     for time:  54.00     to  55.00    
RIV   no.   10 value from time series:   113.50     for time:  54.00     to  55.00    

 NO OUTPUT CONTROL FOR STRESS PERIOD    3   TIME STEP   23
WEL   no.    2 value from time series:   0.0000     for time:  55.00     to  56.00    
WEL   no.    3 value from time series:   0.0000     for time:  55.00     to  56.00    
RIV   no.    1 value from time series:   101.00     for time:  55.00     to  56.00    
RIV   no.    2 value from time series:   101.00     for time:  55.00     to  56.00    
RIV   no.    3 value from time series:   111.50     for time:  55.00     to  56.00    
RIV   no.    4 value from time series:   111.50     for time:  55.00     to  56.00    
RIV   no.    5 value from time series:   115.10     for time:  55.00     to  56.00    
RIV   no.    6 value from time series:   115.10     for time:  55.00     to  56.00    
RIV   no.    7 value from time series:   104.00     for time:  55.00     to  56.00    
RIV   no.    8 value from time series:   104.00     for time:  55.00     to  56.00    
RIV   no.    9 value from time series:   113.50     for time:  55.00     to  56.00    
RIV   no.   10 value from time series:   113.50     for time:  55.00     to  56.00    
WEL   no.    2 value from time series:   0.0000     for time:  55.00     to  56.00    
WEL   no.    3 value from time series:   0.0000     for time:  55.00     to  56.00    
RIV   no.    1 value from time series:   101.00     for time:  55.00     to  56.00    
RIV   no.    2 value from time series:   101.00     for time:  55.00     to  56.00    
RIV   no.    3 value from time series:   111.50     for time:  55.00     to  56.00    
RIV   no.    4 value from time series:   111.50     for time:  55.00     to  56.00    
RIV   no.    5 value from time series:   115.10     for time:  55.00     to  56.00    
RIV   no.    6 value from time series:   115.10     for time:  55.00     to  56.00    
RIV   no.    7 value from time series:   104.00     for time:  55.00     to  56.00    
RIV   no.    8 value from time series:   104.00     for time:  55.00     to  56.00    
RIV   no.    9 value from time series:   113.50     for time:  55.00     to  56.00    
RIV   no.   10 value from time series:   113.50     for time:  55.00     to  56.00    

 NO OUTPUT CONTROL FOR STRESS PERIOD    3   TIME STEP   24
WEL   no.    2 value from time series:   0.0000     for time:  56.00     to  57.00    
WEL   no.    3 value from time series:   0.0000     for time:  56.00     to  57.00    
RIV   no.    1 value from time series:   101.00     for time:  56.00     to  57.00    
RIV   no.    2 value from time series:   101.00     for time:  56.00     to  57.00    
RIV   no.    3 value from time series:   111.50     for time:  56.00     to  57.00    
RIV   no.    4 value from time series:   111.50     for time:  56.00     to  57.00    
RIV   no.    5 value from time series:   115.10     for time:  56.00     to  57.00    
RIV   no.    6 value from time series:   115.10     for time:  56.00     to  57.00    
RIV   no.    7 value from time series:   104.00     for time:  56.00     to  57.00    
RIV   no.    8 value from time series:   104.00     for time:  56.00     to  57.00    
RIV   no.    9 value from time series:   113.50     for time:  56.00     to  57.00    
RIV   no.   10 value from time series:   113.50     for time:  56.00     to  57.00    
WEL   no.    2 value from time series:   0.0000     for time:  56.00     to  57.00    
WEL   no.    3 value from time series:   0.0000     for time:  56.00     to  57.00    
RIV   no.    1 value from time series:   101.00     for time:  56.00     to  57.00    
RIV   no.    2 value from time series:   101.00     for time:  56.00     to  57.00    
RIV   no.    3 value from time series:   111.50     for time:  56.00     to  57.00    
RIV   no.    4 value from time series:   111.50     for time:  56.00     to  57.00    
RIV   no.    5 value from time series:   115.10     for time:  56.00     to  57.00    
RIV   no.    6 value from time series:   115.10     for time:  56.00     to  57.00    
RIV   no.    7 value from time series:   104.00     for time:  56.00     to  57.00    
RIV   no.    8 value from time series:   104.00     for time:  56.00     to  57.00    
RIV   no.    9 value from time series:   113.50     for time:  56.00     to  57.00    
RIV   no.   10 value from time series:   113.50     for time:  56.00     to  57.00    

 NO OUTPUT CONTROL FOR STRESS PERIOD    3   TIME STEP   25
WEL   no.    2 value from time series:   0.0000     for time:  57.00     to  58.00    
WEL   no.    3 value from time series:   0.0000     for time:  57.00     to  58.00    
RIV   no.    1 value from time series:   101.00     for time:  57.00     to  58.00    
RIV   no.    2 value from time series:   101.00     for time:  57.00     to  58.00    
RIV   no.    3 value from time series:   111.50     for time:  57.00     to  58.00    
RIV   no.    4 value from time series:   111.50     for time:  57.00     to  58.00    
RIV   no.    5 value from time series:   115.10     for time:  57.00     to  58.00    
RIV   no.    6 value from time series:   115.10     for time:  57.00     to  58.00    
RIV   no.    7 value from time series:   104.00     for time:  57.00     to  58.00    
RIV   no.    8 value from time series:   104.00     for time:  57.00     to  58.00    
RIV   no.    9 value from time series:   113.50     for time:  57.00     to  58.00    
RIV   no.   10 value from time series:   113.50     for time:  57.00     to  58.00    
WEL   no.    2 value from time series:   0.0000     for time:  57.00     to  58.00    
WEL   no.    3 value from time series:   0.0000     for time:  57.00     to  58.00    
RIV   no.    1 value from time series:   101.00     for time:  57.00     to  58.00    
RIV   no.    2 value from time series:   101.00     for time:  57.00     to  58.00    
RIV   no.    3 value from time series:   111.50     for time:  57.00     to  58.00    
RIV   no.    4 value from time series:   111.50     for time:  57.00     to  58.00    
RIV   no.    5 value from time series:   115.10     for time:  57.00     to  58.00    
RIV   no.    6 value from time series:   115.10     for time:  57.00     to  58.00    
RIV   no.    7 value from time series:   104.00     for time:  57.00     to  58.00    
RIV   no.    8 value from time series:   104.00     for time:  57.00     to  58.00    
RIV   no.    9 value from time series:   113.50     for time:  57.00     to  58.00    
RIV   no.   10 value from time series:   113.50     for time:  57.00     to  58.00    

 NO OUTPUT CONTROL FOR STRESS PERIOD    3   TIME STEP   26
WEL   no.    2 value from time series:   0.0000     for time:  58.00     to  59.00    
WEL   no.    3 value from time series:   0.0000     for time:  58.00     to  59.00    
RIV   no.    1 value from time series:   101.00     for time:  58.00     to  59.00    
RIV   no.    2 value from time series:   101.00     for time:  58.00     to  59.00    
RIV   no.    3 value from time series:   111.50     for time:  58.00     to  59.00    
RIV   no.    4 value from time series:   111.50     for time:  58.00     to  59.00    
RIV   no.    5 value from time series:   115.10     for time:  58.00     to  59.00    
RIV   no.    6 value from time series:   115.10     for time:  58.00     to  59.00    
RIV   no.    7 value from time series:   104.00     for time:  58.00     to  59.00    
RIV   no.    8 value from time series:   104.00     for time:  58.00     to  59.00    
RIV   no.    9 value from time series:   113.50     for time:  58.00     to  59.00    
RIV   no.   10 value from time series:   113.50     for time:  58.00     to  59.00    
WEL   no.    2 value from time series:   0.0000     for time:  58.00     to  59.00    
WEL   no.    3 value from time series:   0.0000     for time:  58.00     to  59.00    
RIV   no.    1 value from time series:   101.00     for time:  58.00     to  59.00    
RIV   no.    2 value from time series:   101.00     for time:  58.00     to  59.00    
RIV   no.    3 value from time series:   111.50     for time:  58.00     to  59.00    
RIV   no.    4 value from time series:   111.50     for time:  58.00     to  59.00    
RIV   no.    5 value from time series:   115.10     for time:  58.00     to  59.00    
RIV   no.    6 value from time series:   115.10     for time:  58.00     to  59.00    
RIV   no.    7 value from time series:   104.00     for time:  58.00     to  59.00    
RIV   no.    8 value from time series:   104.00     for time:  58.00     to  59.00    
RIV   no.    9 value from time series:   113.50     for time:  58.00     to  59.00    
RIV   no.   10 value from time series:   113.50     for time:  58.00     to  59.00    

 NO OUTPUT CONTROL FOR STRESS PERIOD    3   TIME STEP   27
WEL   no.    2 value from time series:   0.0000     for time:  59.00     to  60.00    
WEL   no.    3 value from time series:   0.0000     for time:  59.00     to  60.00    
RIV   no.    1 value from time series:   101.00     for time:  59.00     to  60.00    
RIV   no.    2 value from time series:   101.00     for time:  59.00     to  60.00    
RIV   no.    3 value from time series:   111.50     for time:  59.00     to  60.00    
RIV   no.    4 value from time series:   111.50     for time:  59.00     to  60.00    
RIV   no.    5 value from time series:   115.10     for time:  59.00     to  60.00    
RIV   no.    6 value from time series:   115.10     for time:  59.00     to  60.00    
RIV   no.    7 value from time series:   104.00     for time:  59.00     to  60.00    
RIV   no.    8 value from time series:   104.00     for time:  59.00     to  60.00    
RIV   no.    9 value from time series:   113.50     for time:  59.00     to  60.00    
RIV   no.   10 value from time series:   113.50     for time:  59.00     to  60.00    
WEL   no.    2 value from time series:   0.0000     for time:  59.00     to  60.00    
WEL   no.    3 value from time series:   0.0000     for time:  59.00     to  60.00    
RIV   no.    1 value from time series:   101.00     for time:  59.00     to  60.00    
RIV   no.    2 value from time series:   101.00     for time:  59.00     to  60.00    
RIV   no.    3 value from time series:   111.50     for time:  59.00     to  60.00    
RIV   no.    4 value from time series:   111.50     for time:  59.00     to  60.00    
RIV   no.    5 value from time series:   115.10     for time:  59.00     to  60.00    
RIV   no.    6 value from time series:   115.10     for time:  59.00     to  60.00    
RIV   no.    7 value from time series:   104.00     for time:  59.00     to  60.00    
RIV   no.    8 value from time series:   104.00     for time:  59.00     to  60.00    
RIV   no.    9 value from time series:   113.50     for time:  59.00     to  60.00    
RIV   no.   10 value from time series:   113.50     for time:  59.00     to  60.00    

 OUTPUT CONTROL FOR STRESS PERIOD    3   TIME STEP   28
    PRINT BUDGET
    SAVE BUDGET
    SAVE HEAD
    SAVE HEAD FOR ALL LAYERS
 UBDSV1 SAVING          STORAGE ON UNIT   1016 AT TIME STEP     28, STRESS PERIOD      3
 UBDSV1 SAVING FLOW RIGHT FACE  ON UNIT   1016 AT TIME STEP     28, STRESS PERIOD      3
 UBDSV1 SAVING FLOW FRONT FACE  ON UNIT   1016 AT TIME STEP     28, STRESS PERIOD      3
 UBDSV1 SAVING FLOW LOWER FACE  ON UNIT   1016 AT TIME STEP     28, STRESS PERIOD      3
 UBDSV4 SAVING WELLS NEAR RIVER ON UNIT   1016 AT TIME STEP     28, STRESS PERIOD      3

 WELLS NEAR RIVER   PERIOD  3   STEP 28
 BOUNDARY      1   LAYER   1   ROW     2   COL     3   RATE    -50.0000    
 BOUNDARY      2   LAYER   2   ROW     3   COL     4   RATE     0.00000      WELL_1
 BOUNDARY      3   LAYER   2   ROW     8   COL     4   RATE     0.00000      WELL_2
 UBDSV4 SAVING RIVER            ON UNIT   1016 AT TIME STEP     28, STRESS PERIOD      3

 RIVER              PERIOD  3   STEP 28
 BOUNDARY      1   LAYER   1   ROW     1   COL    15   RATE    -4808.15    
 BOUNDARY      2   LAYER   1   ROW     2   COL    15   RATE    -5925.19      RIV2
 BOUNDARY      3   LAYER   1   ROW     3   COL    15   RATE    -2179.47      RIV3
 BOUNDARY      4   LAYER   1   ROW     4   COL    15   RATE    -3639.44    
 BOUNDARY      5   LAYER   1   ROW     5   COL    15   RATE    -2280.91    
 BOUNDARY      6   LAYER   1   ROW     6   COL    15   RATE    -1632.14    
 BOUNDARY      7   LAYER   1   ROW     7   COL    15   RATE    -6113.78      RIVX
 BOUNDARY      8   LAYER   1   ROW     8   COL    15   RATE    -5954.79      RIVX
 BOUNDARY      9   LAYER   1   ROW     9   COL    15   RATE    -2154.70      RIVX
 BOUNDARY     10   LAYER   1   ROW    10   COL    15   RATE    -3052.52    

 GHB LAKES          PERIOD  3   STEP 28
 BOUNDARY      1   LAYER   1   ROW     3   COL     1   RATE    -14538.8    
 BOUNDARY      2   LAYER   1   ROW     7   COL     1   RATE    -1892.90      GHB2_UPPER
 BOUNDARY      3   LAYER   1   ROW     7   COL     1   RATE    -13253.6      GHB2_LOWER
 UBDSV4 SAVING RECHARGE         ON UNIT   1016 AT TIME STEP     28, STRESS PERIOD      3

 RECHARGE           PERIOD  3   STEP 28
 BOUNDARY      1   LAYER   1   ROW     1   COL     1   RATE     623.958    
 BOUNDARY      2   LAYER   1   ROW     1   COL     2   RATE     623.958    
 BOUNDARY      3   LAYER   1   ROW     1   COL     3   RATE     623.958    
 BOUNDARY      4   LAYER   1   ROW     1   COL     4   RATE     623.958    
 BOUNDARY      5   LAYER   1   ROW     1   COL     5   RATE     623.958    
 BOUNDARY      6   LAYER   1   ROW     1   COL     6   RATE     623.958    
 BOUNDARY      7   LAYER   1   ROW     1   COL     7   RATE     623.958    
 BOUNDARY      8   LAYER   1   ROW     1   COL     8   RATE     623.958    
 BOUNDARY      9   LAYER   1   ROW     1   COL     9   RATE     623.958    
 BOUNDARY     10   LAYER   1   ROW     1   COL    10   RATE     623.958    
 BOUNDARY     11   LAYER   1   ROW     1   COL    11   RATE     623.958    
 BOUNDARY     12   LAYER   1   ROW     1   COL    12   RATE     623.958    
 BOUNDARY     13   LAYER   1   ROW     1   COL    13   RATE     623.958    
 BOUNDARY     14   LAYER   1   ROW     1   COL    14   RATE     623.958    
 BOUNDARY     15   LAYER   1   ROW     1   COL    15   RATE     623.958    
 BOUNDARY     16   LAYER   1   ROW     2   COL     1   RATE     623.958    
 BOUNDARY     17   LAYER   1   ROW     2   COL     2   RATE     623.958    
 BOUNDARY     18   LAYER   1   ROW     2   COL     3   RATE     623.958    
 BOUNDARY     19   LAYER   1   ROW     2   COL     4   RATE     623.958    
 BOUNDARY     20   LAYER   1   ROW     2   COL     5   RATE     623.958    
 BOUNDARY     21   LAYER   1   ROW     2   COL     6   RATE     623.958    
 BOUNDARY     22   LAYER   1   ROW     2   COL     7   RATE     623.958    
 BOUNDARY     23   LAYER   1   ROW     2   COL     8   RATE     623.958    
 BOUNDARY     24   LAYER   1   ROW     2   COL     9   RATE     623.958    
 BOUNDARY     25   LAYER   1   ROW     2   COL    10   RATE     623.958    
 BOUNDARY     26   LAYER   1   ROW     2   COL    11   RATE     623.958    
 BOUNDARY     27   LAYER   1   ROW     2   COL    12   RATE     623.958    
 BOUNDARY     28   LAYER   1   ROW     2   COL    13   RATE     623.958    
 BOUNDARY     29   LAYER   1   ROW     2   COL    14   RATE     623.958    
 BOUNDARY     30   LAYER   1   ROW     2   COL    15   RATE     623.958    
 BOUNDARY     31   LAYER   1   ROW     3   COL     1   RATE     623.958    
 BOUNDARY     32   LAYER   1   ROW     3   COL     2   RATE     623.958    
 BOUNDARY     33   LAYER   1   ROW     3   COL     3   RATE     623.958    
 BOUNDARY     34   LAYER   1   ROW     3   COL     4   RATE     623.958    
 BOUNDARY     35   LAYER   1   ROW     3   COL     5   RATE     623.958    
 BOUNDARY     36   LAYER   1   ROW     3   COL     6   RATE     623.958    
 BOUNDARY     37   LAYER   1   ROW     3   COL     7   RATE     623.958    
 BOUNDARY     38   LAYER   1   ROW     3   COL     8   RATE     623.958    
 BOUNDARY     39   LAYER   1   ROW     3   COL     9   RATE     623.958    
 BOUNDARY     40   LAYER   1   ROW     3   COL    10   RATE     623.958    
 BOUNDARY     41   LAYER   1   ROW     3   COL    11   RATE     623.958    
 BOUNDARY     42   LAYER   1   ROW     3   COL    12   RATE     623.958    
 BOUNDARY     43   LAYER   1   ROW     3   COL    13   RATE     623.958    
 BOUNDARY     44   LAYER   1   ROW     3   COL    14   RATE     623.958    
 BOUNDARY     45   LAYER   1   ROW     3   COL    15   RATE     623.958    
 BOUNDARY     46   LAYER   1   ROW     4   COL     1   RATE     623.958    
 BOUNDARY     47   LAYER   1   ROW     4   COL     2   RATE     623.958    
 BOUNDARY     48   LAYER   1   ROW     4   COL     3   RATE     623.958    
 BOUNDARY     49   LAYER   1   ROW     4   COL     4   RATE     623.958    
 BOUNDARY     50   LAYER   1   ROW     4   COL     5   RATE     623.958    
 BOUNDARY     51   LAYER   1   ROW     4   COL     6   RATE     623.958    
 BOUNDARY     52   LAYER   1   ROW     4   COL     7   RATE     623.958    
 BOUNDARY     53   LAYER   1   ROW     4   COL     8   RATE     623.958    
 BOUNDARY     54   LAYER   1   ROW     4   COL     9   RATE     623.958    
 BOUNDARY     55   LAYER   1   ROW     4   COL    10   RATE     623.958    
 BOUNDARY     56   LAYER   1   ROW     4   COL    11   RATE     623.958    
 BOUNDARY     57   LAYER   1   ROW     4   COL    12   RATE     623.958    
 BOUNDARY     58   LAYER   1   ROW     4   COL    13   RATE     623.958    
 BOUNDARY     59   LAYER   1   ROW     4   COL    14   RATE     623.958    
 BOUNDARY     60   LAYER   1   ROW     4   COL    15   RATE     623.958    
 BOUNDARY     61   LAYER   1   ROW     5   COL     1   RATE     623.958    
 BOUNDARY     62   LAYER   1   ROW     5   COL     2   RATE     623.958    
 BOUNDARY     63   LAYER   1   ROW     5   COL     3   RATE     623.958    
 BOUNDARY     64   LAYER   1   ROW     5   COL     4   RATE     623.958    
 BOUNDARY     65   LAYER   1   ROW     5   COL     5   RATE     623.958    
 BOUNDARY     66   LAYER   1   ROW     5   COL     6   RATE     623.958    
 BOUNDARY     67   LAYER   1   ROW     5   COL     7   RATE     623.958    
 BOUNDARY     68   LAYER   1   ROW     5   COL     8   RATE     623.958    
 BOUNDARY     69   LAYER   1   ROW     5   COL     9   RATE     623.958    
 BOUNDARY     70   LAYER   1   ROW     5   COL    10   RATE     623.958    
 BOUNDARY     71   LAYER   1   ROW     5   COL    11   RATE     623.958    
 BOUNDARY     72   LAYER   1   ROW     5   COL    12   RATE     623.958    
 BOUNDARY     73   LAYER   1   ROW     5   COL    13   RATE     623.958    
 BOUNDARY     74   LAYER   1   ROW     5   COL    14   RATE     623.958    
 BOUNDARY     75   LAYER   1   ROW     5   COL    15   RATE     623.958    
 BOUNDARY     76   LAYER   1   ROW     6   COL     1   RATE     623.958    
 BOUNDARY     77   LAYER   1   ROW     6   COL     2   RATE     623.958    
 BOUNDARY     78   LAYER   1   ROW     6   COL     3   RATE     623.958    
 BOUNDARY     79   LAYER   1   ROW     6   COL     4   RATE     623.958    
 BOUNDARY     80   LAYER   1   ROW     6   COL     5   RATE     623.958    
 BOUNDARY     81   LAYER   1   ROW     6   COL     6   RATE     623.958    
 BOUNDARY     82   LAYER   1   ROW     6   COL     7   RATE     623.958    
 BOUNDARY     83   LAYER   1   ROW     6   COL     8   RATE     623.958    
 BOUNDARY     84   LAYER   1   ROW     6   COL     9   RATE     623.958    
 BOUNDARY     85   LAYER   1   ROW     6   COL    10   RATE     623.958    
 BOUNDARY     86   LAYER   1   ROW     6   COL    11   RATE     623.958    
 BOUNDARY     87   LAYER   1   ROW     6   COL    12   RATE     623.958    
 BOUNDARY     88   LAYER   1   ROW     6   COL    13   RATE     623.958    
 BOUNDARY     89   LAYER   1   ROW     6   COL    14   RATE     623.958    
 BOUNDARY     90   LAYER   1   ROW     6   COL    15   RATE     623.958    
 BOUNDARY     91   LAYER   1   ROW     7   COL     1   RATE     623.958    
 BOUNDARY     92   LAYER   1   ROW     7   COL     2   RATE     623.958    
 BOUNDARY     93   LAYER   1   ROW     7   COL     3   RATE     623.958    
 BOUNDARY     94   LAYER   1   ROW     7   COL     4   RATE     623.958    
 BOUNDARY     95   LAYER   1   ROW     7   COL     5   RATE     623.958    
 BOUNDARY     96   LAYER   1   ROW     7   COL     6   RATE     623.958    
 BOUNDARY     97   LAYER   1   ROW     7   COL     7   RATE     623.958    
 BOUNDARY     98   LAYER   1   ROW     7   COL     8   RATE     623.958    
 BOUNDARY     99   LAYER   1   ROW     7   COL     9   RATE     623.958    
 BOUNDARY    100   LAYER   1   ROW     7   COL    10   RATE     623.958    
 BOUNDARY    101   LAYER   1   ROW     7   COL    11   RATE     623.958    
 BOUNDARY    102   LAYER   1   ROW     7   COL    12   RATE     623.958    
 BOUNDARY    103   LAYER   1   ROW     7   COL    13   RATE     623.958    
 BOUNDARY    104   LAYER   1   ROW     7   COL    14   RATE     623.958    
 BOUNDARY    105   LAYER   1   ROW     7   COL    15   RATE     623.958    
 BOUNDARY    106   LAYER   1   ROW     8   COL     1   RATE     623.958    
 BOUNDARY    107   LAYER   1   ROW     8   COL     2   RATE     623.958    
 BOUNDARY    108   LAYER   1   ROW     8   COL     3   RATE     623.958    
 BOUNDARY    109   LAYER   1   ROW     8   COL     4   RATE     623.958    
 BOUNDARY    110   LAYER   1   ROW     8   COL     5   RATE     623.958    
 BOUNDARY    111   LAYER   1   ROW     8   COL     6   RATE     623.958    
 BOUNDARY    112   LAYER   1   ROW     8   COL     7   RATE     623.958    
 BOUNDARY    113   LAYER   1   ROW     8   COL     8   RATE     623.958    
 BOUNDARY    114   LAYER   1   ROW     8   COL     9   RATE     623.958    
 BOUNDARY    115   LAYER   1   ROW     8   COL    10   RATE     623.958    
 BOUNDARY    116   LAYER   1   ROW     8   COL    11   RATE     623.958    
 BOUNDARY    117   LAYER   1   ROW     8   COL    12   RATE     623.958    
 BOUNDARY    118   LAYER   1   ROW     8   COL    13   RATE     623.958    
 BOUNDARY    119   LAYER   1   ROW     8   COL    14   RATE     623.958    
 BOUNDARY    120   LAYER   1   ROW     8   COL    15   RATE     623.958    
 BOUNDARY    121   LAYER   1   ROW     9   COL     1   RATE     623.958    
 BOUNDARY    122   LAYER   1   ROW     9   COL     2   RATE     623.958    
 BOUNDARY    123   LAYER   1   ROW     9   COL     3   RATE     623.958    
 BOUNDARY    124   LAYER   1   ROW     9   COL     4   RATE     623.958    
 BOUNDARY    125   LAYER   1   ROW     9   COL     5   RATE     623.958    
 BOUNDARY    126   LAYER   1   ROW     9   COL     6   RATE     623.958    
 BOUNDARY    127   LAYER   1   ROW     9   COL     7   RATE     623.958    
 BOUNDARY    128   LAYER   1   ROW     9   COL     8   RATE     623.958    
 BOUNDARY    129   LAYER   1   ROW     9   COL     9   RATE     623.958    
 BOUNDARY    130   LAYER   1   ROW     9   COL    10   RATE     623.958    
 BOUNDARY    131   LAYER   1   ROW     9   COL    11   RATE     623.958    
 BOUNDARY    132   LAYER   1   ROW     9   COL    12   RATE     623.958    
 BOUNDARY    133   LAYER   1   ROW     9   COL    13   RATE     623.958    
 BOUNDARY    134   LAYER   1   ROW     9   COL    14   RATE     623.958    
 BOUNDARY    135   LAYER   1   ROW     9   COL    15   RATE     623.958    
 BOUNDARY    136   LAYER   1   ROW    10   COL     1   RATE     623.958    
 BOUNDARY    137   LAYER   1   ROW    10   COL     2   RATE     623.958    
 BOUNDARY    138   LAYER   1   ROW    10   COL     3   RATE     623.958    
 BOUNDARY    139   LAYER   1   ROW    10   COL     4   RATE     623.958    
 BOUNDARY    140   LAYER   1   ROW    10   COL     5   RATE     623.958    
 BOUNDARY    141   LAYER   1   ROW    10   COL     6   RATE     623.958    
 BOUNDARY    142   LAYER   1   ROW    10   COL     7   RATE     623.958    
 BOUNDARY    143   LAYER   1   ROW    10   COL     8   RATE     623.958    
 BOUNDARY    144   LAYER   1   ROW    10   COL     9   RATE     623.958    
 BOUNDARY    145   LAYER   1   ROW    10   COL    10   RATE     623.958    
 BOUNDARY    146   LAYER   1   ROW    10   COL    11   RATE     623.958    
 BOUNDARY    147   LAYER   1   ROW    10   COL    12   RATE     623.958    
 BOUNDARY    148   LAYER   1   ROW    10   COL    13   RATE     623.958    
 BOUNDARY    149   LAYER   1   ROW    10   COL    14   RATE     623.958    
 BOUNDARY    150   LAYER   1   ROW    10   COL    15   RATE     623.958    
 UBDSV4 SAVING ET SEGS          ON UNIT   1016 AT TIME STEP     28, STRESS PERIOD      3

 ET SEGS            PERIOD  3   STEP 28
 BOUNDARY      1   LAYER   1   ROW     1   COL     1   RATE    -2.35243    
 BOUNDARY      2   LAYER   1   ROW     1   COL     2   RATE    -9.20471    
 BOUNDARY      3   LAYER   1   ROW     1   COL     3   RATE    -52.4836    
 BOUNDARY      4   LAYER   1   ROW     1   COL     4   RATE   -100.0000    
 BOUNDARY      5   LAYER   1   ROW     1   COL     5   RATE   -100.0000    
 BOUNDARY      6   LAYER   1   ROW     1   COL     6   RATE   -100.0000    
 BOUNDARY      7   LAYER   1   ROW     1   COL     7   RATE   -100.0000    
 BOUNDARY      8   LAYER   1   ROW     1   COL     8   RATE   -100.0000    
 BOUNDARY      9   LAYER   1   ROW     1   COL     9   RATE   -100.0000    
 BOUNDARY     10   LAYER   1   ROW     1   COL    10   RATE   -100.0000    
 BOUNDARY     11   LAYER   1   ROW     1   COL    11   RATE   -100.0000    
 BOUNDARY     12   LAYER   1   ROW     1   COL    12   RATE    -17.4990    
 BOUNDARY     13   LAYER   1   ROW     1   COL    13   RATE     0.00000    
 BOUNDARY     14   LAYER   1   ROW     1   COL    14   RATE     0.00000    
 BOUNDARY     15   LAYER   1   ROW     1   COL    15   RATE     0.00000    
 BOUNDARY     16   LAYER   1   ROW     2   COL     1   RATE     0.00000    
 BOUNDARY     17   LAYER   1   ROW     2   COL     2   RATE    -4.67921    
 BOUNDARY     18   LAYER   1   ROW     2   COL     3   RATE    -28.7547    
 BOUNDARY     19   LAYER   1   ROW     2   COL     4   RATE   -100.0000    
 BOUNDARY     20   LAYER   1   ROW     2   COL     5   RATE   -100.0000    
 BOUNDARY     21   LAYER   1   ROW     2   COL     6   RATE   -100.0000    
 BOUNDARY     22   LAYER   1   ROW     2   COL     7   RATE   -100.0000    
 BOUNDARY     23   LAYER   1   ROW     2   COL     8   RATE   -100.0000    
 BOUNDARY     24   LAYER   1   ROW     2   COL     9   RATE   -100.0000    
 BOUNDARY     25   LAYER   1   ROW     2   COL    10   RATE   -100.0000    
 BOUNDARY     26   LAYER   1   ROW     2   COL    11   RATE   -100.0000    
 BOUNDARY     27   LAYER   1   ROW     2   COL    12   RATE    -19.2389    
 BOUNDARY     28   LAYER   1   ROW     2   COL    13   RATE   -0.329510    
 BOUNDARY     29   LAYER   1   ROW     2   COL    14   RATE     0.00000    
 BOUNDARY     30   LAYER   1   ROW     2   COL    15   RATE     0.00000    
 BOUNDARY     31   LAYER   1   ROW     3   COL     1   RATE     0.00000    
 BOUNDARY     32   LAYER   1   ROW     3   COL     2   RATE     0.00000    
 BOUNDARY     33   LAYER   1   ROW     3   COL     3   RATE    -22.9302    
 BOUNDARY     34   LAYER   1   ROW     3   COL     4   RATE   -100.0000    
 BOUNDARY     35   LAYER   1   ROW     3   COL     5   RATE   -100.0000    
 BOUNDARY     36   LAYER   1   ROW     3   COL     6   RATE   -100.0000    
 BOUNDARY     37   LAYER   1   ROW     3   COL     7   RATE   -100.0000    
 BOUNDARY     38   LAYER   1   ROW     3   COL     8   RATE   -100.0000    
 BOUNDARY     39   LAYER   1   ROW     3   COL     9   RATE   -100.0000    
 BOUNDARY     40   LAYER   1   ROW     3   COL    10   RATE   -100.0000    
 BOUNDARY     41   LAYER   1   ROW     3   COL    11   RATE   -100.0000    
 BOUNDARY     42   LAYER   1   ROW     3   COL    12   RATE    -22.1736    
 BOUNDARY     43   LAYER   1   ROW     3   COL    13   RATE    -2.11999    
 BOUNDARY     44   LAYER   1   ROW     3   COL    14   RATE     0.00000    
 BOUNDARY     45   LAYER   1   ROW     3   COL    15   RATE     0.00000    
 BOUNDARY     46   LAYER   1   ROW     4   COL     1   RATE     0.00000    
 BOUNDARY     47   LAYER   1   ROW     4   COL     2   RATE    -3.17392    
 BOUNDARY     48   LAYER   1   ROW     4   COL     3   RATE    -26.8257    
 BOUNDARY     49   LAYER   1   ROW     4   COL     4   RATE   -100.0000    
 BOUNDARY     50   LAYER   1   ROW     4   COL     5   RATE   -100.0000    
 BOUNDARY     51   LAYER   1   ROW     4   COL     6   RATE   -100.0000    
 BOUNDARY     52   LAYER   1   ROW     4   COL     7   RATE   -100.0000    
 BOUNDARY     53   LAYER   1   ROW     4   COL     8   RATE   -100.0000    
 BOUNDARY     54   LAYER   1   ROW     4   COL     9   RATE   -100.0000    
 BOUNDARY     55   LAYER   1   ROW     4   COL    10   RATE   -100.0000    
 BOUNDARY     56   LAYER   1   ROW     4   COL    11   RATE   -100.0000    
 BOUNDARY     57   LAYER   1   ROW     4   COL    12   RATE    -24.9687    
 BOUNDARY     58   LAYER   1   ROW     4   COL    13   RATE    -3.57684    
 BOUNDARY     59   LAYER   1   ROW     4   COL    14   RATE     0.00000    
 BOUNDARY     60   LAYER   1   ROW     4   COL    15   RATE     0.00000    
 BOUNDARY     61   LAYER   1   ROW     5   COL     1   RATE     0.00000    
 BOUNDARY     62   LAYER   1   ROW     5   COL     2   RATE    -6.14967    
 BOUNDARY     63   LAYER   1   ROW     5   COL     3   RATE    -34.2450    
 BOUNDARY     64   LAYER   1   ROW     5   COL     4   RATE   -100.0000    
 BOUNDARY     65   LAYER   1   ROW     5   COL     5   RATE   -100.0000    
 BOUNDARY     66   LAYER   1   ROW     5   COL     6   RATE   -100.0000    
 BOUNDARY     67   LAYER   1   ROW     5   COL     7   RATE   -100.0000    
 BOUNDARY     68   LAYER   1   ROW     5   COL     8   RATE   -100.0000    
 BOUNDARY     69   LAYER   1   ROW     5   COL     9   RATE   -100.0000    
 BOUNDARY     70   LAYER   1   ROW     5   COL    10   RATE   -100.0000    
 BOUNDARY     71   LAYER   1   ROW     5   COL    11   RATE   -100.0000    
 BOUNDARY     72   LAYER   1   ROW     5   COL    12   RATE    -26.8972    
 BOUNDARY     73   LAYER   1   ROW     5   COL    13   RATE    -4.47213    
 BOUNDARY     74   LAYER   1   ROW     5   COL    14   RATE     0.00000    
 BOUNDARY     75   LAYER   1   ROW     5   COL    15   RATE     0.00000    
 BOUNDARY     76   LAYER   1   ROW     6   COL     1   RATE     0.00000    
 BOUNDARY     77   LAYER   1   ROW     6   COL     2   RATE    -4.71596    
 BOUNDARY     78   LAYER   1   ROW     6   COL     3   RATE    -38.0818    
 BOUNDARY     79   LAYER   1   ROW     6   COL     4   RATE   -100.0000    
 BOUNDARY     80   LAYER   1   ROW     6   COL     5   RATE   -100.0000    
 BOUNDARY     81   LAYER   1   ROW     6   COL     6   RATE   -100.0000    
 BOUNDARY     82   LAYER   1   ROW     6   COL     7   RATE   -100.0000    
 BOUNDARY     83   LAYER   1   ROW     6   COL     8   RATE   -100.0000    
 BOUNDARY     84   LAYER   1   ROW     6   COL     9   RATE   -100.0000    
 BOUNDARY     85   LAYER   1   ROW     6   COL    10   RATE   -100.0000    
 BOUNDARY     86   LAYER   1   ROW     6   COL    11   RATE   -100.0000    
 BOUNDARY     87   LAYER   1   ROW     6   COL    12   RATE    -27.5445    
 BOUNDARY     88   LAYER   1   ROW     6   COL    13   RATE    -4.42765    
 BOUNDARY     89   LAYER   1   ROW     6   COL    14   RATE     0.00000    
 BOUNDARY     90   LAYER   1   ROW     6   COL    15   RATE     0.00000    
 BOUNDARY     91   LAYER   1   ROW     7   COL     1   RATE     0.00000    
 BOUNDARY     92   LAYER   1   ROW     7   COL     2   RATE    -1.20589    
 BOUNDARY     93   LAYER   1   ROW     7   COL     3   RATE    -44.9358    
 BOUNDARY     94   LAYER   1   ROW     7   COL     4   RATE   -100.0000    
 BOUNDARY     95   LAYER   1   ROW     7   COL     5   RATE   -100.0000    
 BOUNDARY     96   LAYER   1   ROW     7   COL     6   RATE   -100.0000    
 BOUNDARY     97   LAYER   1   ROW     7   COL     7   RATE   -100.0000    
 BOUNDARY     98   LAYER   1   ROW     7   COL     8   RATE   -100.0000    
 BOUNDARY     99   LAYER   1   ROW     7   COL     9   RATE   -100.0000    
 BOUNDARY    100   LAYER   1   ROW     7   COL    10   RATE   -100.0000    
 BOUNDARY    101   LAYER   1   ROW     7   COL    11   RATE   -100.0000    
 BOUNDARY    102   LAYER   1   ROW     7   COL    12   RATE    -27.3888    
 BOUNDARY    103   LAYER   1   ROW     7   COL    13   RATE    -3.70298    
 BOUNDARY    104   LAYER   1   ROW     7   COL    14   RATE     0.00000    
 BOUNDARY    105   LAYER   1   ROW     7   COL    15   RATE     0.00000    
 BOUNDARY    106   LAYER   1   ROW     8   COL     1   RATE     0.00000    
 BOUNDARY    107   LAYER   1   ROW     8   COL     2   RATE    -11.9320    
 BOUNDARY    108   LAYER   1   ROW     8   COL     3   RATE   -100.0000    
 BOUNDARY    109   LAYER   1   ROW     8   COL     4   RATE   -100.0000    
 BOUNDARY    110   LAYER   1   ROW     8   COL     5   RATE   -100.0000    
 BOUNDARY    111   LAYER   1   ROW     8   COL     6   RATE   -100.0000    
 BOUNDARY    112   LAYER   1   ROW     8   COL     7   RATE   -100.0000    
 BOUNDARY    113   LAYER   1   ROW     8   COL     8   RATE   -100.0000    
 BOUNDARY    114   LAYER   1   ROW     8   COL     9   RATE   -100.0000    
 BOUNDARY    115   LAYER   1   ROW     8   COL    10   RATE   -100.0000    
 BOUNDARY    116   LAYER   1   ROW     8   COL    11   RATE   -100.0000    
 BOUNDARY    117   LAYER   1   ROW     8   COL    12   RATE    -27.7859    
 BOUNDARY    118   LAYER   1   ROW     8   COL    13   RATE    -3.71825    
 BOUNDARY    119   LAYER   1   ROW     8   COL    14   RATE     0.00000    
 BOUNDARY    120   LAYER   1   ROW     8   COL    15   RATE     0.00000    
 BOUNDARY    121   LAYER   1   ROW     9   COL     1   RATE    -19.5183    
 BOUNDARY    122   LAYER   1   ROW     9   COL     2   RATE    -64.0694    
 BOUNDARY    123   LAYER   1   ROW     9   COL     3   RATE   -100.0000    
 BOUNDARY    124   LAYER   1   ROW     9   COL     4   RATE   -100.0000    
 BOUNDARY    125   LAYER   1   ROW     9   COL     5   RATE   -100.0000    
 BOUNDARY    126   LAYER   1   ROW     9   COL     6   RATE   -100.0000    
 BOUNDARY    127   LAYER   1   ROW     9   COL     7   RATE   -100.0000    
 BOUNDARY    128   LAYER   1   ROW     9   COL     8   RATE   -100.0000    
 BOUNDARY    129   LAYER   1   ROW     9   COL     9   RATE   -100.0000    
 BOUNDARY    130   LAYER   1   ROW     9   COL    10   RATE   -100.0000    
 BOUNDARY    131   LAYER   1   ROW     9   COL    11   RATE   -100.0000    
 BOUNDARY    132   LAYER   1   ROW     9   COL    12   RATE    -28.8967    
 BOUNDARY    133   LAYER   1   ROW     9   COL    13   RATE    -4.55716    
 BOUNDARY    134   LAYER   1   ROW     9   COL    14   RATE     0.00000    
 BOUNDARY    135   LAYER   1   ROW     9   COL    15   RATE     0.00000    
 BOUNDARY    136   LAYER   1   ROW    10   COL     1   RATE    -72.2788    
 BOUNDARY    137   LAYER   1   ROW    10   COL     2   RATE   -100.0000    
 BOUNDARY    138   LAYER   1   ROW    10   COL     3   RATE   -100.0000    
 BOUNDARY    139   LAYER   1   ROW    10   COL     4   RATE   -100.0000    
 BOUNDARY    140   LAYER   1   ROW    10   COL     5   RATE   -100.0000    
 BOUNDARY    141   LAYER   1   ROW    10   COL     6   RATE   -100.0000    
 BOUNDARY    142   LAYER   1   ROW    10   COL     7   RATE   -100.0000    
 BOUNDARY    143   LAYER   1   ROW    10   COL     8   RATE   -100.0000    
 BOUNDARY    144   LAYER   1   ROW    10   COL     9   RATE   -100.0000    
 BOUNDARY    145   LAYER   1   ROW    10   COL    10   RATE   -100.0000    
 BOUNDARY    146   LAYER   1   ROW    10   COL    11   RATE   -100.0000    
 BOUNDARY    147   LAYER   1   ROW    10   COL    12   RATE    -29.6982    
 BOUNDARY    148   LAYER   1   ROW    10   COL    13   RATE    -5.09287    
 BOUNDARY    149   LAYER   1   ROW    10   COL    14   RATE     0.00000    
 BOUNDARY    150   LAYER   1   ROW    10   COL    15   RATE     0.00000    

 HEAD WILL BE SAVED ON UNIT 1017 AT END OF TIME STEP   28, STRESS PERIOD    3
1
  VOLUME BUDGET FOR ENTIRE MODEL AT END OF TIME STEP   28, STRESS PERIOD   3
  ------------------------------------------------------------------------------

     CUMULATIVE VOLUME      L**3       RATES FOR THIS TIME STEP      L**3/T
     ------------------                 ------------------------

           IN:                                      IN:
           ---                                      ---
             STORAGE =       51546.2038               STORAGE =           0.9367
    WELLS NEAR RIVER =           0.0000      WELLS NEAR RIVER =           0.0000
               RIVER =           0.0000                 RIVER =           0.0000
           GHB LAKES =           0.0000             GHB LAKES =           0.0000
            RECHARGE =     5062500.0000              RECHARGE =       93593.7500
             ET SEGS =           0.0000               ET SEGS =           0.0000

            TOTAL IN =     5114046.2038              TOTAL IN =       93594.6867

          OUT:                                     OUT:
          ----                                     ----
             STORAGE =      622112.6795               STORAGE =       16986.6888
    WELLS NEAR RIVER =        3570.0000      WELLS NEAR RIVER =          50.0000
               RIVER =     2170989.0904                 RIVER =       37741.0733
           GHB LAKES =     1771412.1689             GHB LAKES =       29685.2987
            RECHARGE =           0.0000              RECHARGE =           0.0000
             ET SEGS =      545962.2659               ET SEGS =        9131.6260

           TOTAL OUT =     5114046.2047             TOTAL OUT =       93594.6867

            IN - OUT =      -8.4338E-04              IN - OUT =      -9.7460E-07

 PERCENT DISCREPANCY =          -0.00     PERCENT DISCREPANCY =          -0.00






         TIME SUMMARY AT END OF TIME STEP   28 IN STRESS PERIOD    3
                    SECONDS     MINUTES      HOURS       DAYS        YEARS
                    -----------------------------------------------------------
   TIME STEP LENGTH  86400.      1440.0      24.000     1.00000     2.73785E-03
 STRESS PERIOD TIME 2.41920E+06  40320.      672.00      28.000     7.66598E-02
         TOTAL TIME 5.18400E+06  86400.      1440.0      60.000     0.16427    

 REUSING STORAGE VALUES FROM LAST STRESS PERIOD
 #        k         i         j      flow      var1    var2 var3

 WEL NO.  LAYER   ROW    COL     STRESS RATE  BOUNDARY NAME         VAR1            VAR2            VAR3            
 -------------------------------------------------------------------------------------------------------------------
      1      2      8      4       0.000      WELL_2                1.0000           2.000           3.000    
      2      2      3      4       0.000      WELL_1                 4.000           5.000           6.000    

 REUSING RIVS FROM LAST STRESS PERIOD

 REUSING GHBS FROM LAST STRESS PERIOD

 REUSING RCHS FROM LAST STRESS PERIOD

 REUSING ETSS FROM LAST STRESS PERIOD
WEL   no.    1 value from time series:   0.0000     for time:  60.00     to  61.00    
WEL   no.    2 value from time series:   0.0000     for time:  60.00     to  61.00    
RIV   no.    1 value from time series:   101.00     for time:  60.00     to  61.00    
RIV   no.    2 value from time series:   101.00     for time:  60.00     to  61.00    
RIV   no.    3 value from time series:   111.50     for time:  60.00     to  61.00    
RIV   no.    4 value from time series:   111.50     for time:  60.00     to  61.00    
RIV   no.    5 value from time series:   115.10     for time:  60.00     to  61.00    
RIV   no.    6 value from time series:   115.10     for time:  60.00     to  61.00    
RIV   no.    7 value from time series:   104.00     for time:  60.00     to  61.00    
RIV   no.    8 value from time series:   104.00     for time:  60.00     to  61.00    
RIV   no.    9 value from time series:   113.50     for time:  60.00     to  61.00    
RIV   no.   10 value from time series:   113.50     for time:  60.00     to  61.00    

 RchArraySeries           =  3.300000E-03 FOR LAYER   1
WEL   no.    1 value from time series:   0.0000     for time:  60.00     to  61.00    
WEL   no.    2 value from time series:   0.0000     for time:  60.00     to  61.00    
RIV   no.    1 value from time series:   101.00     for time:  60.00     to  61.00    
RIV   no.    2 value from time series:   101.00     for time:  60.00     to  61.00    
RIV   no.    3 value from time series:   111.50     for time:  60.00     to  61.00    
RIV   no.    4 value from time series:   111.50     for time:  60.00     to  61.00    
RIV   no.    5 value from time series:   115.10     for time:  60.00     to  61.00    
RIV   no.    6 value from time series:   115.10     for time:  60.00     to  61.00    
RIV   no.    7 value from time series:   104.00     for time:  60.00     to  61.00    
RIV   no.    8 value from time series:   104.00     for time:  60.00     to  61.00    
RIV   no.    9 value from time series:   113.50     for time:  60.00     to  61.00    
RIV   no.   10 value from time series:   113.50     for time:  60.00     to  61.00    

 OUTPUT CONTROL FOR STRESS PERIOD    4   TIME STEP    1
    SAVE BUDGET
    SAVE HEAD
    SAVE HEAD FOR ALL LAYERS
 UBDSV1 SAVING          STORAGE ON UNIT   1016 AT TIME STEP      1, STRESS PERIOD      4
 UBDSV1 SAVING FLOW RIGHT FACE  ON UNIT   1016 AT TIME STEP      1, STRESS PERIOD      4
 UBDSV1 SAVING FLOW FRONT FACE  ON UNIT   1016 AT TIME STEP      1, STRESS PERIOD      4
 UBDSV1 SAVING FLOW LOWER FACE  ON UNIT   1016 AT TIME STEP      1, STRESS PERIOD      4
 UBDSV4 SAVING WELLS NEAR RIVER ON UNIT   1016 AT TIME STEP      1, STRESS PERIOD      4

 WELLS NEAR RIVER   PERIOD  4   STEP  1
 BOUNDARY      1   LAYER   2   ROW     8   COL     4   RATE     0.00000      WELL_2
 BOUNDARY      2   LAYER   2   ROW     3   COL     4   RATE     0.00000      WELL_1
 UBDSV4 SAVING RIVER            ON UNIT   1016 AT TIME STEP      1, STRESS PERIOD      4

 RIVER              PERIOD  4   STEP  1
 BOUNDARY      1   LAYER   1   ROW     1   COL    15   RATE    -4808.25    
 BOUNDARY      2   LAYER   1   ROW     2   COL    15   RATE    -5925.63      RIV2
 BOUNDARY      3   LAYER   1   ROW     3   COL    15   RATE    -2180.70      RIV3
 BOUNDARY      4   LAYER   1   ROW     4   COL    15   RATE    -3640.82    
 BOUNDARY      5   LAYER   1   ROW     5   COL    15   RATE    -2282.16    
 BOUNDARY      6   LAYER   1   ROW     6   COL    15   RATE    -1633.22    
 BOUNDARY      7   LAYER   1   ROW     7   COL    15   RATE    -6114.70      RIVX
 BOUNDARY      8   LAYER   1   ROW     8   COL    15   RATE    -5956.02      RIVX
 BOUNDARY      9   LAYER   1   ROW     9   COL    15   RATE    -2156.50      RIVX
 BOUNDARY     10   LAYER   1   ROW    10   COL    15   RATE    -3054.62    

 GHB LAKES          PERIOD  4   STEP  1
 BOUNDARY      1   LAYER   1   ROW     3   COL     1   RATE    -14542.4    
 BOUNDARY      2   LAYER   1   ROW     7   COL     1   RATE    -1895.78      GHB2_UPPER
 BOUNDARY      3   LAYER   1   ROW     7   COL     1   RATE    -13254.7      GHB2_LOWER
 UBDSV4 SAVING RECHARGE         ON UNIT   1016 AT TIME STEP      1, STRESS PERIOD      4

 RECHARGE           PERIOD  4   STEP  1
 BOUNDARY      1   LAYER   1   ROW     1   COL     1   RATE     626.667    
 BOUNDARY      2   LAYER   1   ROW     1   COL     2   RATE     626.667    
 BOUNDARY      3   LAYER   1   ROW     1   COL     3   RATE     626.667    
 BOUNDARY      4   LAYER   1   ROW     1   COL     4   RATE     626.667    
 BOUNDARY      5   LAYER   1   ROW     1   COL     5   RATE     626.667    
 BOUNDARY      6   LAYER   1   ROW     1   COL     6   RATE     626.667    
 BOUNDARY      7   LAYER   1   ROW     1   COL     7   RATE     626.667    
 BOUNDARY      8   LAYER   1   ROW     1   COL     8   RATE     626.667    
 BOUNDARY      9   LAYER   1   ROW     1   COL     9   RATE     626.667    
 BOUNDARY     10   LAYER   1   ROW     1   COL    10   RATE     626.667    
 BOUNDARY     11   LAYER   1   ROW     1   COL    11   RATE     626.667    
 BOUNDARY     12   LAYER   1   ROW     1   COL    12   RATE     626.667    
 BOUNDARY     13   LAYER   1   ROW     1   COL    13   RATE     626.667    
 BOUNDARY     14   LAYER   1   ROW     1   COL    14   RATE     626.667    
 BOUNDARY     15   LAYER   1   ROW     1   COL    15   RATE     626.667    
 BOUNDARY     16   LAYER   1   ROW     2   COL     1   RATE     626.667    
 BOUNDARY     17   LAYER   1   ROW     2   COL     2   RATE     626.667    
 BOUNDARY     18   LAYER   1   ROW     2   COL     3   RATE     626.667    
 BOUNDARY     19   LAYER   1   ROW     2   COL     4   RATE     626.667    
 BOUNDARY     20   LAYER   1   ROW     2   COL     5   RATE     626.667    
 BOUNDARY     21   LAYER   1   ROW     2   COL     6   RATE     626.667    
 BOUNDARY     22   LAYER   1   ROW     2   COL     7   RATE     626.667    
 BOUNDARY     23   LAYER   1   ROW     2   COL     8   RATE     626.667    
 BOUNDARY     24   LAYER   1   ROW     2   COL     9   RATE     626.667    
 BOUNDARY     25   LAYER   1   ROW     2   COL    10   RATE     626.667    
 BOUNDARY     26   LAYER   1   ROW     2   COL    11   RATE     626.667    
 BOUNDARY     27   LAYER   1   ROW     2   COL    12   RATE     626.667    
 BOUNDARY     28   LAYER   1   ROW     2   COL    13   RATE     626.667    
 BOUNDARY     29   LAYER   1   ROW     2   COL    14   RATE     626.667    
 BOUNDARY     30   LAYER   1   ROW     2   COL    15   RATE     626.667    
 BOUNDARY     31   LAYER   1   ROW     3   COL     1   RATE     626.667    
 BOUNDARY     32   LAYER   1   ROW     3   COL     2   RATE     626.667    
 BOUNDARY     33   LAYER   1   ROW     3   COL     3   RATE     626.667    
 BOUNDARY     34   LAYER   1   ROW     3   COL     4   RATE     626.667    
 BOUNDARY     35   LAYER   1   ROW     3   COL     5   RATE     626.667    
 BOUNDARY     36   LAYER   1   ROW     3   COL     6   RATE     626.667    
 BOUNDARY     37   LAYER   1   ROW     3   COL     7   RATE     626.667    
 BOUNDARY     38   LAYER   1   ROW     3   COL     8   RATE     626.667    
 BOUNDARY     39   LAYER   1   ROW     3   COL     9   RATE     626.667    
 BOUNDARY     40   LAYER   1   ROW     3   COL    10   RATE     626.667    
 BOUNDARY     41   LAYER   1   ROW     3   COL    11   RATE     626.667    
 BOUNDARY     42   LAYER   1   ROW     3   COL    12   RATE     626.667    
 BOUNDARY     43   LAYER   1   ROW     3   COL    13   RATE     626.667    
 BOUNDARY     44   LAYER   1   ROW     3   COL    14   RATE     626.667    
 BOUNDARY     45   LAYER   1   ROW     3   COL    15   RATE     626.667    
 BOUNDARY     46   LAYER   1   ROW     4   COL     1   RATE     626.667    
 BOUNDARY     47   LAYER   1   ROW     4   COL     2   RATE     626.667    
 BOUNDARY     48   LAYER   1   ROW     4   COL     3   RATE     626.667    
 BOUNDARY     49   LAYER   1   ROW     4   COL     4   RATE     626.667    
 BOUNDARY     50   LAYER   1   ROW     4   COL     5   RATE     626.667    
 BOUNDARY     51   LAYER   1   ROW     4   COL     6   RATE     626.667    
 BOUNDARY     52   LAYER   1   ROW     4   COL     7   RATE     626.667    
 BOUNDARY     53   LAYER   1   ROW     4   COL     8   RATE     626.667    
 BOUNDARY     54   LAYER   1   ROW     4   COL     9   RATE     626.667    
 BOUNDARY     55   LAYER   1   ROW     4   COL    10   RATE     626.667    
 BOUNDARY     56   LAYER   1   ROW     4   COL    11   RATE     626.667    
 BOUNDARY     57   LAYER   1   ROW     4   COL    12   RATE     626.667    
 BOUNDARY     58   LAYER   1   ROW     4   COL    13   RATE     626.667    
 BOUNDARY     59   LAYER   1   ROW     4   COL    14   RATE     626.667    
 BOUNDARY     60   LAYER   1   ROW     4   COL    15   RATE     626.667    
 BOUNDARY     61   LAYER   1   ROW     5   COL     1   RATE     626.667    
 BOUNDARY     62   LAYER   1   ROW     5   COL     2   RATE     626.667    
 BOUNDARY     63   LAYER   1   ROW     5   COL     3   RATE     626.667    
 BOUNDARY     64   LAYER   1   ROW     5   COL     4   RATE     626.667    
 BOUNDARY     65   LAYER   1   ROW     5   COL     5   RATE     626.667    
 BOUNDARY     66   LAYER   1   ROW     5   COL     6   RATE     626.667    
 BOUNDARY     67   LAYER   1   ROW     5   COL     7   RATE     626.667    
 BOUNDARY     68   LAYER   1   ROW     5   COL     8   RATE     626.667    
 BOUNDARY     69   LAYER   1   ROW     5   COL     9   RATE     626.667    
 BOUNDARY     70   LAYER   1   ROW     5   COL    10   RATE     626.667    
 BOUNDARY     71   LAYER   1   ROW     5   COL    11   RATE     626.667    
 BOUNDARY     72   LAYER   1   ROW     5   COL    12   RATE     626.667    
 BOUNDARY     73   LAYER   1   ROW     5   COL    13   RATE     626.667    
 BOUNDARY     74   LAYER   1   ROW     5   COL    14   RATE     626.667    
 BOUNDARY     75   LAYER   1   ROW     5   COL    15   RATE     626.667    
 BOUNDARY     76   LAYER   1   ROW     6   COL     1   RATE     626.667    
 BOUNDARY     77   LAYER   1   ROW     6   COL     2   RATE     626.667    
 BOUNDARY     78   LAYER   1   ROW     6   COL     3   RATE     626.667    
 BOUNDARY     79   LAYER   1   ROW     6   COL     4   RATE     626.667    
 BOUNDARY     80   LAYER   1   ROW     6   COL     5   RATE     626.667    
 BOUNDARY     81   LAYER   1   ROW     6   COL     6   RATE     626.667    
 BOUNDARY     82   LAYER   1   ROW     6   COL     7   RATE     626.667    
 BOUNDARY     83   LAYER   1   ROW     6   COL     8   RATE     626.667    
 BOUNDARY     84   LAYER   1   ROW     6   COL     9   RATE     626.667    
 BOUNDARY     85   LAYER   1   ROW     6   COL    10   RATE     626.667    
 BOUNDARY     86   LAYER   1   ROW     6   COL    11   RATE     626.667    
 BOUNDARY     87   LAYER   1   ROW     6   COL    12   RATE     626.667    
 BOUNDARY     88   LAYER   1   ROW     6   COL    13   RATE     626.667    
 BOUNDARY     89   LAYER   1   ROW     6   COL    14   RATE     626.667    
 BOUNDARY     90   LAYER   1   ROW     6   COL    15   RATE     626.667    
 BOUNDARY     91   LAYER   1   ROW     7   COL     1   RATE     626.667    
 BOUNDARY     92   LAYER   1   ROW     7   COL     2   RATE     626.667    
 BOUNDARY     93   LAYER   1   ROW     7   COL     3   RATE     626.667    
 BOUNDARY     94   LAYER   1   ROW     7   COL     4   RATE     626.667    
 BOUNDARY     95   LAYER   1   ROW     7   COL     5   RATE     626.667    
 BOUNDARY     96   LAYER   1   ROW     7   COL     6   RATE     626.667    
 BOUNDARY     97   LAYER   1   ROW     7   COL     7   RATE     626.667    
 BOUNDARY     98   LAYER   1   ROW     7   COL     8   RATE     626.667    
 BOUNDARY     99   LAYER   1   ROW     7   COL     9   RATE     626.667    
 BOUNDARY    100   LAYER   1   ROW     7   COL    10   RATE     626.667    
 BOUNDARY    101   LAYER   1   ROW     7   COL    11   RATE     626.667    
 BOUNDARY    102   LAYER   1   ROW     7   COL    12   RATE     626.667    
 BOUNDARY    103   LAYER   1   ROW     7   COL    13   RATE     626.667    
 BOUNDARY    104   LAYER   1   ROW     7   COL    14   RATE     626.667    
 BOUNDARY    105   LAYER   1   ROW     7   COL    15   RATE     626.667    
 BOUNDARY    106   LAYER   1   ROW     8   COL     1   RATE     626.667    
 BOUNDARY    107   LAYER   1   ROW     8   COL     2   RATE     626.667    
 BOUNDARY    108   LAYER   1   ROW     8   COL     3   RATE     626.667    
 BOUNDARY    109   LAYER   1   ROW     8   COL     4   RATE     626.667    
 BOUNDARY    110   LAYER   1   ROW     8   COL     5   RATE     626.667    
 BOUNDARY    111   LAYER   1   ROW     8   COL     6   RATE     626.667    
 BOUNDARY    112   LAYER   1   ROW     8   COL     7   RATE     626.667    
 BOUNDARY    113   LAYER   1   ROW     8   COL     8   RATE     626.667    
 BOUNDARY    114   LAYER   1   ROW     8   COL     9   RATE     626.667    
 BOUNDARY    115   LAYER   1   ROW     8   COL    10   RATE     626.667    
 BOUNDARY    116   LAYER   1   ROW     8   COL    11   RATE     626.667    
 BOUNDARY    117   LAYER   1   ROW     8   COL    12   RATE     626.667    
 BOUNDARY    118   LAYER   1   ROW     8   COL    13   RATE     626.667    
 BOUNDARY    119   LAYER   1   ROW     8   COL    14   RATE     626.667    
 BOUNDARY    120   LAYER   1   ROW     8   COL    15   RATE     626.667    
 BOUNDARY    121   LAYER   1   ROW     9   COL     1   RATE     626.667    
 BOUNDARY    122   LAYER   1   ROW     9   COL     2   RATE     626.667    
 BOUNDARY    123   LAYER   1   ROW     9   COL     3   RATE     626.667    
 BOUNDARY    124   LAYER   1   ROW     9   COL     4   RATE     626.667    
 BOUNDARY    125   LAYER   1   ROW     9   COL     5   RATE     626.667    
 BOUNDARY    126   LAYER   1   ROW     9   COL     6   RATE     626.667    
 BOUNDARY    127   LAYER   1   ROW     9   COL     7   RATE     626.667    
 BOUNDARY    128   LAYER   1   ROW     9   COL     8   RATE     626.667    
 BOUNDARY    129   LAYER   1   ROW     9   COL     9   RATE     626.667    
 BOUNDARY    130   LAYER   1   ROW     9   COL    10   RATE     626.667    
 BOUNDARY    131   LAYER   1   ROW     9   COL    11   RATE     626.667    
 BOUNDARY    132   LAYER   1   ROW     9   COL    12   RATE     626.667    
 BOUNDARY    133   LAYER   1   ROW     9   COL    13   RATE     626.667    
 BOUNDARY    134   LAYER   1   ROW     9   COL    14   RATE     626.667    
 BOUNDARY    135   LAYER   1   ROW     9   COL    15   RATE     626.667    
 BOUNDARY    136   LAYER   1   ROW    10   COL     1   RATE     626.667    
 BOUNDARY    137   LAYER   1   ROW    10   COL     2   RATE     626.667    
 BOUNDARY    138   LAYER   1   ROW    10   COL     3   RATE     626.667    
 BOUNDARY    139   LAYER   1   ROW    10   COL     4   RATE     626.667    
 BOUNDARY    140   LAYER   1   ROW    10   COL     5   RATE     626.667    
 BOUNDARY    141   LAYER   1   ROW    10   COL     6   RATE     626.667    
 BOUNDARY    142   LAYER   1   ROW    10   COL     7   RATE     626.667    
 BOUNDARY    143   LAYER   1   ROW    10   COL     8   RATE     626.667    
 BOUNDARY    144   LAYER   1   ROW    10   COL     9   RATE     626.667    
 BOUNDARY    145   LAYER   1   ROW    10   COL    10   RATE     626.667    
 BOUNDARY    146   LAYER   1   ROW    10   COL    11   RATE     626.667    
 BOUNDARY    147   LAYER   1   ROW    10   COL    12   RATE     626.667    
 BOUNDARY    148   LAYER   1   ROW    10   COL    13   RATE     626.667    
 BOUNDARY    149   LAYER   1   ROW    10   COL    14   RATE     626.667    
 BOUNDARY    150   LAYER   1   ROW    10   COL    15   RATE     626.667    
 UBDSV4 SAVING ET SEGS          ON UNIT   1016 AT TIME STEP      1, STRESS PERIOD      4

 ET SEGS            PERIOD  4   STEP  1
 BOUNDARY      1   LAYER   1   ROW     1   COL     1   RATE    -2.36209    
 BOUNDARY      2   LAYER   1   ROW     1   COL     2   RATE    -9.21432    
 BOUNDARY      3   LAYER   1   ROW     1   COL     3   RATE    -52.6456    
 BOUNDARY      4   LAYER   1   ROW     1   COL     4   RATE   -100.0000    
 BOUNDARY      5   LAYER   1   ROW     1   COL     5   RATE   -100.0000    
 BOUNDARY      6   LAYER   1   ROW     1   COL     6   RATE   -100.0000    
 BOUNDARY      7   LAYER   1   ROW     1   COL     7   RATE   -100.0000    
 BOUNDARY      8   LAYER   1   ROW     1   COL     8   RATE   -100.0000    
 BOUNDARY      9   LAYER   1   ROW     1   COL     9   RATE   -100.0000    
 BOUNDARY     10   LAYER   1   ROW     1   COL    10   RATE   -100.0000    
 BOUNDARY     11   LAYER   1   ROW     1   COL    11   RATE   -100.0000    
 BOUNDARY     12   LAYER   1   ROW     1   COL    12   RATE    -17.5328    
 BOUNDARY     13   LAYER   1   ROW     1   COL    13   RATE     0.00000    
 BOUNDARY     14   LAYER   1   ROW     1   COL    14   RATE     0.00000    
 BOUNDARY     15   LAYER   1   ROW     1   COL    15   RATE     0.00000    
 BOUNDARY     16   LAYER   1   ROW     2   COL     1   RATE     0.00000    
 BOUNDARY     17   LAYER   1   ROW     2   COL     2   RATE    -4.68845    
 BOUNDARY     18   LAYER   1   ROW     2   COL     3   RATE    -28.7965    
 BOUNDARY     19   LAYER   1   ROW     2   COL     4   RATE   -100.0000    
 BOUNDARY     20   LAYER   1   ROW     2   COL     5   RATE   -100.0000    
 BOUNDARY     21   LAYER   1   ROW     2   COL     6   RATE   -100.0000    
 BOUNDARY     22   LAYER   1   ROW     2   COL     7   RATE   -100.0000    
 BOUNDARY     23   LAYER   1   ROW     2   COL     8   RATE   -100.0000    
 BOUNDARY     24   LAYER   1   ROW     2   COL     9   RATE   -100.0000    
 BOUNDARY     25   LAYER   1   ROW     2   COL    10   RATE   -100.0000    
 BOUNDARY     26   LAYER   1   ROW     2   COL    11   RATE   -100.0000    
 BOUNDARY     27   LAYER   1   ROW     2   COL    12   RATE    -19.2727    
 BOUNDARY     28   LAYER   1   ROW     2   COL    13   RATE   -0.339748    
 BOUNDARY     29   LAYER   1   ROW     2   COL    14   RATE     0.00000    
 BOUNDARY     30   LAYER   1   ROW     2   COL    15   RATE     0.00000    
 BOUNDARY     31   LAYER   1   ROW     3   COL     1   RATE     0.00000    
 BOUNDARY     32   LAYER   1   ROW     3   COL     2   RATE     0.00000    
 BOUNDARY     33   LAYER   1   ROW     3   COL     3   RATE    -22.9614    
 BOUNDARY     34   LAYER   1   ROW     3   COL     4   RATE   -100.0000    
 BOUNDARY     35   LAYER   1   ROW     3   COL     5   RATE   -100.0000    
 BOUNDARY     36   LAYER   1   ROW     3   COL     6   RATE   -100.0000    
 BOUNDARY     37   LAYER   1   ROW     3   COL     7   RATE   -100.0000    
 BOUNDARY     38   LAYER   1   ROW     3   COL     8   RATE   -100.0000    
 BOUNDARY     39   LAYER   1   ROW     3   COL     9   RATE   -100.0000    
 BOUNDARY     40   LAYER   1   ROW     3   COL    10   RATE   -100.0000    
 BOUNDARY     41   LAYER   1   ROW     3   COL    11   RATE   -100.0000    
 BOUNDARY     42   LAYER   1   ROW     3   COL    12   RATE    -22.2075    
 BOUNDARY     43   LAYER   1   ROW     3   COL    13   RATE    -2.13037    
 BOUNDARY     44   LAYER   1   ROW     3   COL    14   RATE     0.00000    
 BOUNDARY     45   LAYER   1   ROW     3   COL    15   RATE     0.00000    
 BOUNDARY     46   LAYER   1   ROW     4   COL     1   RATE     0.00000    
 BOUNDARY     47   LAYER   1   ROW     4   COL     2   RATE    -3.18349    
 BOUNDARY     48   LAYER   1   ROW     4   COL     3   RATE    -26.8580    
 BOUNDARY     49   LAYER   1   ROW     4   COL     4   RATE   -100.0000    
 BOUNDARY     50   LAYER   1   ROW     4   COL     5   RATE   -100.0000    
 BOUNDARY     51   LAYER   1   ROW     4   COL     6   RATE   -100.0000    
 BOUNDARY     52   LAYER   1   ROW     4   COL     7   RATE   -100.0000    
 BOUNDARY     53   LAYER   1   ROW     4   COL     8   RATE   -100.0000    
 BOUNDARY     54   LAYER   1   ROW     4   COL     9   RATE   -100.0000    
 BOUNDARY     55   LAYER   1   ROW     4   COL    10   RATE   -100.0000    
 BOUNDARY     56   LAYER   1   ROW     4   COL    11   RATE   -100.0000    
 BOUNDARY     57   LAYER   1   ROW     4   COL    12   RATE    -25.0023    
 BOUNDARY     58   LAYER   1   ROW     4   COL    13   RATE    -3.58701    
 BOUNDARY     59   LAYER   1   ROW     4   COL    14   RATE     0.00000    
 BOUNDARY     60   LAYER   1   ROW     4   COL    15   RATE     0.00000    
 BOUNDARY     61   LAYER   1   ROW     5   COL     1   RATE     0.00000    
 BOUNDARY     62   LAYER   1   ROW     5   COL     2   RATE    -6.15937    
 BOUNDARY     63   LAYER   1   ROW     5   COL     3   RATE    -34.4138    
 BOUNDARY     64   LAYER   1   ROW     5   COL     4   RATE   -100.0000    
 BOUNDARY     65   LAYER   1   ROW     5   COL     5   RATE   -100.0000    
 BOUNDARY     66   LAYER   1   ROW     5   COL     6   RATE   -100.0000    
 BOUNDARY     67   LAYER   1   ROW     5   COL     7   RATE   -100.0000    
 BOUNDARY     68   LAYER   1   ROW     5   COL     8   RATE   -100.0000    
 BOUNDARY     69   LAYER   1   ROW     5   COL     9   RATE   -100.0000    
 BOUNDARY     70   LAYER   1   ROW     5   COL    10   RATE   -100.0000    
 BOUNDARY     71   LAYER   1   ROW     5   COL    11   RATE   -100.0000    
 BOUNDARY     72   LAYER   1   ROW     5   COL    12   RATE    -26.9304    
 BOUNDARY     73   LAYER   1   ROW     5   COL    13   RATE    -4.48187    
 BOUNDARY     74   LAYER   1   ROW     5   COL    14   RATE     0.00000    
 BOUNDARY     75   LAYER   1   ROW     5   COL    15   RATE     0.00000    
 BOUNDARY     76   LAYER   1   ROW     6   COL     1   RATE     0.00000    
 BOUNDARY     77   LAYER   1   ROW     6   COL     2   RATE    -4.72543    
 BOUNDARY     78   LAYER   1   ROW     6   COL     3   RATE    -38.2494    
 BOUNDARY     79   LAYER   1   ROW     6   COL     4   RATE   -100.0000    
 BOUNDARY     80   LAYER   1   ROW     6   COL     5   RATE   -100.0000    
 BOUNDARY     81   LAYER   1   ROW     6   COL     6   RATE   -100.0000    
 BOUNDARY     82   LAYER   1   ROW     6   COL     7   RATE   -100.0000    
 BOUNDARY     83   LAYER   1   ROW     6   COL     8   RATE   -100.0000    
 BOUNDARY     84   LAYER   1   ROW     6   COL     9   RATE   -100.0000    
 BOUNDARY     85   LAYER   1   ROW     6   COL    10   RATE   -100.0000    
 BOUNDARY     86   LAYER   1   ROW     6   COL    11   RATE   -100.0000    
 BOUNDARY     87   LAYER   1   ROW     6   COL    12   RATE    -27.5775    
 BOUNDARY     88   LAYER   1   ROW     6   COL    13   RATE    -4.43724    
 BOUNDARY     89   LAYER   1   ROW     6   COL    14   RATE     0.00000    
 BOUNDARY     90   LAYER   1   ROW     6   COL    15   RATE     0.00000    
 BOUNDARY     91   LAYER   1   ROW     7   COL     1   RATE     0.00000    
 BOUNDARY     92   LAYER   1   ROW     7   COL     2   RATE    -1.21476    
 BOUNDARY     93   LAYER   1   ROW     7   COL     3   RATE    -45.1022    
 BOUNDARY     94   LAYER   1   ROW     7   COL     4   RATE   -100.0000    
 BOUNDARY     95   LAYER   1   ROW     7   COL     5   RATE   -100.0000    
 BOUNDARY     96   LAYER   1   ROW     7   COL     6   RATE   -100.0000    
 BOUNDARY     97   LAYER   1   ROW     7   COL     7   RATE   -100.0000    
 BOUNDARY     98   LAYER   1   ROW     7   COL     8   RATE   -100.0000    
 BOUNDARY     99   LAYER   1   ROW     7   COL     9   RATE   -100.0000    
 BOUNDARY    100   LAYER   1   ROW     7   COL    10   RATE   -100.0000    
 BOUNDARY    101   LAYER   1   ROW     7   COL    11   RATE   -100.0000    
 BOUNDARY    102   LAYER   1   ROW     7   COL    12   RATE    -27.4221    
 BOUNDARY    103   LAYER   1   ROW     7   COL    13   RATE    -3.71280    
 BOUNDARY    104   LAYER   1   ROW     7   COL    14   RATE     0.00000    
 BOUNDARY    105   LAYER   1   ROW     7   COL    15   RATE     0.00000    
 BOUNDARY    106   LAYER   1   ROW     8   COL     1   RATE     0.00000    
 BOUNDARY    107   LAYER   1   ROW     8   COL     2   RATE    -11.9636    
 BOUNDARY    108   LAYER   1   ROW     8   COL     3   RATE   -100.0000    
 BOUNDARY    109   LAYER   1   ROW     8   COL     4   RATE   -100.0000    
 BOUNDARY    110   LAYER   1   ROW     8   COL     5   RATE   -100.0000    
 BOUNDARY    111   LAYER   1   ROW     8   COL     6   RATE   -100.0000    
 BOUNDARY    112   LAYER   1   ROW     8   COL     7   RATE   -100.0000    
 BOUNDARY    113   LAYER   1   ROW     8   COL     8   RATE   -100.0000    
 BOUNDARY    114   LAYER   1   ROW     8   COL     9   RATE   -100.0000    
 BOUNDARY    115   LAYER   1   ROW     8   COL    10   RATE   -100.0000    
 BOUNDARY    116   LAYER   1   ROW     8   COL    11   RATE   -100.0000    
 BOUNDARY    117   LAYER   1   ROW     8   COL    12   RATE    -27.8197    
 BOUNDARY    118   LAYER   1   ROW     8   COL    13   RATE    -3.72855    
 BOUNDARY    119   LAYER   1   ROW     8   COL    14   RATE     0.00000    
 BOUNDARY    120   LAYER   1   ROW     8   COL    15   RATE     0.00000    
 BOUNDARY    121   LAYER   1   ROW     9   COL     1   RATE    -19.5501    
 BOUNDARY    122   LAYER   1   ROW     9   COL     2   RATE    -64.2377    
 BOUNDARY    123   LAYER   1   ROW     9   COL     3   RATE   -100.0000    
 BOUNDARY    124   LAYER   1   ROW     9   COL     4   RATE   -100.0000    
 BOUNDARY    125   LAYER   1   ROW     9   COL     5   RATE   -100.0000    
 BOUNDARY    126   LAYER   1   ROW     9   COL     6   RATE   -100.0000    
 BOUNDARY    127   LAYER   1   ROW     9   COL     7   RATE   -100.0000    
 BOUNDARY    128   LAYER   1   ROW     9   COL     8   RATE   -100.0000    
 BOUNDARY    129   LAYER   1   ROW     9   COL     9   RATE   -100.0000    
 BOUNDARY    130   LAYER   1   ROW     9   COL    10   RATE   -100.0000    
 BOUNDARY    131   LAYER   1   ROW     9   COL    11   RATE   -100.0000    
 BOUNDARY    132   LAYER   1   ROW     9   COL    12   RATE    -28.9312    
 BOUNDARY    133   LAYER   1   ROW     9   COL    13   RATE    -4.56812    
 BOUNDARY    134   LAYER   1   ROW     9   COL    14   RATE     0.00000    
 BOUNDARY    135   LAYER   1   ROW     9   COL    15   RATE     0.00000    
 BOUNDARY    136   LAYER   1   ROW    10   COL     1   RATE    -72.4468    
 BOUNDARY    137   LAYER   1   ROW    10   COL     2   RATE   -100.0000    
 BOUNDARY    138   LAYER   1   ROW    10   COL     3   RATE   -100.0000    
 BOUNDARY    139   LAYER   1   ROW    10   COL     4   RATE   -100.0000    
 BOUNDARY    140   LAYER   1   ROW    10   COL     5   RATE   -100.0000    
 BOUNDARY    141   LAYER   1   ROW    10   COL     6   RATE   -100.0000    
 BOUNDARY    142   LAYER   1   ROW    10   COL     7   RATE   -100.0000    
 BOUNDARY    143   LAYER   1   ROW    10   COL     8   RATE   -100.0000    
 BOUNDARY    144   LAYER   1   ROW    10   COL     9   RATE   -100.0000    
 BOUNDARY    145   LAYER   1   ROW    10   COL    10   RATE   -100.0000    
 BOUNDARY    146   LAYER   1   ROW    10   COL    11   RATE   -100.0000    
 BOUNDARY    147   LAYER   1   ROW    10   COL    12   RATE    -29.7330    
 BOUNDARY    148   LAYER   1   ROW    10   COL    13   RATE    -5.10418    
 BOUNDARY    149   LAYER   1   ROW    10   COL    14   RATE     0.00000    
 BOUNDARY    150   LAYER   1   ROW    10   COL    15   RATE     0.00000    

 HEAD WILL BE SAVED ON UNIT 1017 AT END OF TIME STEP    1, STRESS PERIOD    4
WEL   no.    1 value from time series:   0.0000     for time:  61.00     to  62.00    
WEL   no.    2 value from time series:   0.0000     for time:  61.00     to  62.00    
RIV   no.    1 value from time series:   101.00     for time:  61.00     to  62.00    
RIV   no.    2 value from time series:   101.00     for time:  61.00     to  62.00    
RIV   no.    3 value from time series:   111.50     for time:  61.00     to  62.00    
RIV   no.    4 value from time series:   111.50     for time:  61.00     to  62.00    
RIV   no.    5 value from time series:   115.10     for time:  61.00     to  62.00    
RIV   no.    6 value from time series:   115.10     for time:  61.00     to  62.00    
RIV   no.    7 value from time series:   104.00     for time:  61.00     to  62.00    
RIV   no.    8 value from time series:   104.00     for time:  61.00     to  62.00    
RIV   no.    9 value from time series:   113.50     for time:  61.00     to  62.00    
RIV   no.   10 value from time series:   113.50     for time:  61.00     to  62.00    
WEL   no.    1 value from time series:   0.0000     for time:  61.00     to  62.00    
WEL   no.    2 value from time series:   0.0000     for time:  61.00     to  62.00    
RIV   no.    1 value from time series:   101.00     for time:  61.00     to  62.00    
RIV   no.    2 value from time series:   101.00     for time:  61.00     to  62.00    
RIV   no.    3 value from time series:   111.50     for time:  61.00     to  62.00    
RIV   no.    4 value from time series:   111.50     for time:  61.00     to  62.00    
RIV   no.    5 value from time series:   115.10     for time:  61.00     to  62.00    
RIV   no.    6 value from time series:   115.10     for time:  61.00     to  62.00    
RIV   no.    7 value from time series:   104.00     for time:  61.00     to  62.00    
RIV   no.    8 value from time series:   104.00     for time:  61.00     to  62.00    
RIV   no.    9 value from time series:   113.50     for time:  61.00     to  62.00    
RIV   no.   10 value from time series:   113.50     for time:  61.00     to  62.00    

 OUTPUT CONTROL FOR STRESS PERIOD    4   TIME STEP    2
    SAVE BUDGET
    SAVE HEAD
    SAVE HEAD FOR ALL LAYERS
 UBDSV1 SAVING          STORAGE ON UNIT   1016 AT TIME STEP      2, STRESS PERIOD      4
 UBDSV1 SAVING FLOW RIGHT FACE  ON UNIT   1016 AT TIME STEP      2, STRESS PERIOD      4
 UBDSV1 SAVING FLOW FRONT FACE  ON UNIT   1016 AT TIME STEP      2, STRESS PERIOD      4
 UBDSV1 SAVING FLOW LOWER FACE  ON UNIT   1016 AT TIME STEP      2, STRESS PERIOD      4
 UBDSV4 SAVING WELLS NEAR RIVER ON UNIT   1016 AT TIME STEP      2, STRESS PERIOD      4

 WELLS NEAR RIVER   PERIOD  4   STEP  2
 BOUNDARY      1   LAYER   2   ROW     8   COL     4   RATE     0.00000      WELL_2
 BOUNDARY      2   LAYER   2   ROW     3   COL     4   RATE     0.00000      WELL_1
 UBDSV4 SAVING RIVER            ON UNIT   1016 AT TIME STEP      2, STRESS PERIOD      4

 RIVER              PERIOD  4   STEP  2
 BOUNDARY      1   LAYER   1   ROW     1   COL    15   RATE    -4808.53    
 BOUNDARY      2   LAYER   1   ROW     2   COL    15   RATE    -5926.22      RIV2
 BOUNDARY      3   LAYER   1   ROW     3   COL    15   RATE    -2182.06      RIV3
 BOUNDARY      4   LAYER   1   ROW     4   COL    15   RATE    -3642.32    
 BOUNDARY      5   LAYER   1   ROW     5   COL    15   RATE    -2283.53    
 BOUNDARY      6   LAYER   1   ROW     6   COL    15   RATE    -1634.43    
 BOUNDARY      7   LAYER   1   ROW     7   COL    15   RATE    -6115.77      RIVX
 BOUNDARY      8   LAYER   1   ROW     8   COL    15   RATE    -5957.39      RIVX
 BOUNDARY      9   LAYER   1   ROW     9   COL    15   RATE    -2158.41      RIVX
 BOUNDARY     10   LAYER   1   ROW    10   COL    15   RATE    -3056.82    

 GHB LAKES          PERIOD  4   STEP  2
 BOUNDARY      1   LAYER   1   ROW     3   COL     1   RATE    -14546.2    
 BOUNDARY      2   LAYER   1   ROW     7   COL     1   RATE    -1898.77      GHB2_UPPER
 BOUNDARY      3   LAYER   1   ROW     7   COL     1   RATE    -13255.7      GHB2_LOWER
 UBDSV4 SAVING RECHARGE         ON UNIT   1016 AT TIME STEP      2, STRESS PERIOD      4

 RECHARGE           PERIOD  4   STEP  2
 BOUNDARY      1   LAYER   1   ROW     1   COL     1   RATE     630.000    
 BOUNDARY      2   LAYER   1   ROW     1   COL     2   RATE     630.000    
 BOUNDARY      3   LAYER   1   ROW     1   COL     3   RATE     630.000    
 BOUNDARY      4   LAYER   1   ROW     1   COL     4   RATE     630.000    
 BOUNDARY      5   LAYER   1   ROW     1   COL     5   RATE     630.000    
 BOUNDARY      6   LAYER   1   ROW     1   COL     6   RATE     630.000    
 BOUNDARY      7   LAYER   1   ROW     1   COL     7   RATE     630.000    
 BOUNDARY      8   LAYER   1   ROW     1   COL     8   RATE     630.000    
 BOUNDARY      9   LAYER   1   ROW     1   COL     9   RATE     630.000    
 BOUNDARY     10   LAYER   1   ROW     1   COL    10   RATE     630.000    
 BOUNDARY     11   LAYER   1   ROW     1   COL    11   RATE     630.000    
 BOUNDARY     12   LAYER   1   ROW     1   COL    12   RATE     630.000    
 BOUNDARY     13   LAYER   1   ROW     1   COL    13   RATE     630.000    
 BOUNDARY     14   LAYER   1   ROW     1   COL    14   RATE     630.000    
 BOUNDARY     15   LAYER   1   ROW     1   COL    15   RATE     630.000    
 BOUNDARY     16   LAYER   1   ROW     2   COL     1   RATE     630.000    
 BOUNDARY     17   LAYER   1   ROW     2   COL     2   RATE     630.000    
 BOUNDARY     18   LAYER   1   ROW     2   COL     3   RATE     630.000    
 BOUNDARY     19   LAYER   1   ROW     2   COL     4   RATE     630.000    
 BOUNDARY     20   LAYER   1   ROW     2   COL     5   RATE     630.000    
 BOUNDARY     21   LAYER   1   ROW     2   COL     6   RATE     630.000    
 BOUNDARY     22   LAYER   1   ROW     2   COL     7   RATE     630.000    
 BOUNDARY     23   LAYER   1   ROW     2   COL     8   RATE     630.000    
 BOUNDARY     24   LAYER   1   ROW     2   COL     9   RATE     630.000    
 BOUNDARY     25   LAYER   1   ROW     2   COL    10   RATE     630.000    
 BOUNDARY     26   LAYER   1   ROW     2   COL    11   RATE     630.000    
 BOUNDARY     27   LAYER   1   ROW     2   COL    12   RATE     630.000    
 BOUNDARY     28   LAYER   1   ROW     2   COL    13   RATE     630.000    
 BOUNDARY     29   LAYER   1   ROW     2   COL    14   RATE     630.000    
 BOUNDARY     30   LAYER   1   ROW     2   COL    15   RATE     630.000    
 BOUNDARY     31   LAYER   1   ROW     3   COL     1   RATE     630.000    
 BOUNDARY     32   LAYER   1   ROW     3   COL     2   RATE     630.000    
 BOUNDARY     33   LAYER   1   ROW     3   COL     3   RATE     630.000    
 BOUNDARY     34   LAYER   1   ROW     3   COL     4   RATE     630.000    
 BOUNDARY     35   LAYER   1   ROW     3   COL     5   RATE     630.000    
 BOUNDARY     36   LAYER   1   ROW     3   COL     6   RATE     630.000    
 BOUNDARY     37   LAYER   1   ROW     3   COL     7   RATE     630.000    
 BOUNDARY     38   LAYER   1   ROW     3   COL     8   RATE     630.000    
 BOUNDARY     39   LAYER   1   ROW     3   COL     9   RATE     630.000    
 BOUNDARY     40   LAYER   1   ROW     3   COL    10   RATE     630.000    
 BOUNDARY     41   LAYER   1   ROW     3   COL    11   RATE     630.000    
 BOUNDARY     42   LAYER   1   ROW     3   COL    12   RATE     630.000    
 BOUNDARY     43   LAYER   1   ROW     3   COL    13   RATE     630.000    
 BOUNDARY     44   LAYER   1   ROW     3   COL    14   RATE     630.000    
 BOUNDARY     45   LAYER   1   ROW     3   COL    15   RATE     630.000    
 BOUNDARY     46   LAYER   1   ROW     4   COL     1   RATE     630.000    
 BOUNDARY     47   LAYER   1   ROW     4   COL     2   RATE     630.000    
 BOUNDARY     48   LAYER   1   ROW     4   COL     3   RATE     630.000    
 BOUNDARY     49   LAYER   1   ROW     4   COL     4   RATE     630.000    
 BOUNDARY     50   LAYER   1   ROW     4   COL     5   RATE     630.000    
 BOUNDARY     51   LAYER   1   ROW     4   COL     6   RATE     630.000    
 BOUNDARY     52   LAYER   1   ROW     4   COL     7   RATE     630.000    
 BOUNDARY     53   LAYER   1   ROW     4   COL     8   RATE     630.000    
 BOUNDARY     54   LAYER   1   ROW     4   COL     9   RATE     630.000    
 BOUNDARY     55   LAYER   1   ROW     4   COL    10   RATE     630.000    
 BOUNDARY     56   LAYER   1   ROW     4   COL    11   RATE     630.000    
 BOUNDARY     57   LAYER   1   ROW     4   COL    12   RATE     630.000    
 BOUNDARY     58   LAYER   1   ROW     4   COL    13   RATE     630.000    
 BOUNDARY     59   LAYER   1   ROW     4   COL    14   RATE     630.000    
 BOUNDARY     60   LAYER   1   ROW     4   COL    15   RATE     630.000    
 BOUNDARY     61   LAYER   1   ROW     5   COL     1   RATE     630.000    
 BOUNDARY     62   LAYER   1   ROW     5   COL     2   RATE     630.000    
 BOUNDARY     63   LAYER   1   ROW     5   COL     3   RATE     630.000    
 BOUNDARY     64   LAYER   1   ROW     5   COL     4   RATE     630.000    
 BOUNDARY     65   LAYER   1   ROW     5   COL     5   RATE     630.000    
 BOUNDARY     66   LAYER   1   ROW     5   COL     6   RATE     630.000    
 BOUNDARY     67   LAYER   1   ROW     5   COL     7   RATE     630.000    
 BOUNDARY     68   LAYER   1   ROW     5   COL     8   RATE     630.000    
 BOUNDARY     69   LAYER   1   ROW     5   COL     9   RATE     630.000    
 BOUNDARY     70   LAYER   1   ROW     5   COL    10   RATE     630.000    
 BOUNDARY     71   LAYER   1   ROW     5   COL    11   RATE     630.000    
 BOUNDARY     72   LAYER   1   ROW     5   COL    12   RATE     630.000    
 BOUNDARY     73   LAYER   1   ROW     5   COL    13   RATE     630.000    
 BOUNDARY     74   LAYER   1   ROW     5   COL    14   RATE     630.000    
 BOUNDARY     75   LAYER   1   ROW     5   COL    15   RATE     630.000    
 BOUNDARY     76   LAYER   1   ROW     6   COL     1   RATE     630.000    
 BOUNDARY     77   LAYER   1   ROW     6   COL     2   RATE     630.000    
 BOUNDARY     78   LAYER   1   ROW     6   COL     3   RATE     630.000    
 BOUNDARY     79   LAYER   1   ROW     6   COL     4   RATE     630.000    
 BOUNDARY     80   LAYER   1   ROW     6   COL     5   RATE     630.000    
 BOUNDARY     81   LAYER   1   ROW     6   COL     6   RATE     630.000    
 BOUNDARY     82   LAYER   1   ROW     6   COL     7   RATE     630.000    
 BOUNDARY     83   LAYER   1   ROW     6   COL     8   RATE     630.000    
 BOUNDARY     84   LAYER   1   ROW     6   COL     9   RATE     630.000    
 BOUNDARY     85   LAYER   1   ROW     6   COL    10   RATE     630.000    
 BOUNDARY     86   LAYER   1   ROW     6   COL    11   RATE     630.000    
 BOUNDARY     87   LAYER   1   ROW     6   COL    12   RATE     630.000    
 BOUNDARY     88   LAYER   1   ROW     6   COL    13   RATE     630.000    
 BOUNDARY     89   LAYER   1   ROW     6   COL    14   RATE     630.000    
 BOUNDARY     90   LAYER   1   ROW     6   COL    15   RATE     630.000    
 BOUNDARY     91   LAYER   1   ROW     7   COL     1   RATE     630.000    
 BOUNDARY     92   LAYER   1   ROW     7   COL     2   RATE     630.000    
 BOUNDARY     93   LAYER   1   ROW     7   COL     3   RATE     630.000    
 BOUNDARY     94   LAYER   1   ROW     7   COL     4   RATE     630.000    
 BOUNDARY     95   LAYER   1   ROW     7   COL     5   RATE     630.000    
 BOUNDARY     96   LAYER   1   ROW     7   COL     6   RATE     630.000    
 BOUNDARY     97   LAYER   1   ROW     7   COL     7   RATE     630.000    
 BOUNDARY     98   LAYER   1   ROW     7   COL     8   RATE     630.000    
 BOUNDARY     99   LAYER   1   ROW     7   COL     9   RATE     630.000    
 BOUNDARY    100   LAYER   1   ROW     7   COL    10   RATE     630.000    
 BOUNDARY    101   LAYER   1   ROW     7   COL    11   RATE     630.000    
 BOUNDARY    102   LAYER   1   ROW     7   COL    12   RATE     630.000    
 BOUNDARY    103   LAYER   1   ROW     7   COL    13   RATE     630.000    
 BOUNDARY    104   LAYER   1   ROW     7   COL    14   RATE     630.000    
 BOUNDARY    105   LAYER   1   ROW     7   COL    15   RATE     630.000    
 BOUNDARY    106   LAYER   1   ROW     8   COL     1   RATE     630.000    
 BOUNDARY    107   LAYER   1   ROW     8   COL     2   RATE     630.000    
 BOUNDARY    108   LAYER   1   ROW     8   COL     3   RATE     630.000    
 BOUNDARY    109   LAYER   1   ROW     8   COL     4   RATE     630.000    
 BOUNDARY    110   LAYER   1   ROW     8   COL     5   RATE     630.000    
 BOUNDARY    111   LAYER   1   ROW     8   COL     6   RATE     630.000    
 BOUNDARY    112   LAYER   1   ROW     8   COL     7   RATE     630.000    
 BOUNDARY    113   LAYER   1   ROW     8   COL     8   RATE     630.000    
 BOUNDARY    114   LAYER   1   ROW     8   COL     9   RATE     630.000    
 BOUNDARY    115   LAYER   1   ROW     8   COL    10   RATE     630.000    
 BOUNDARY    116   LAYER   1   ROW     8   COL    11   RATE     630.000    
 BOUNDARY    117   LAYER   1   ROW     8   COL    12   RATE     630.000    
 BOUNDARY    118   LAYER   1   ROW     8   COL    13   RATE     630.000    
 BOUNDARY    119   LAYER   1   ROW     8   COL    14   RATE     630.000    
 BOUNDARY    120   LAYER   1   ROW     8   COL    15   RATE     630.000    
 BOUNDARY    121   LAYER   1   ROW     9   COL     1   RATE     630.000    
 BOUNDARY    122   LAYER   1   ROW     9   COL     2   RATE     630.000    
 BOUNDARY    123   LAYER   1   ROW     9   COL     3   RATE     630.000    
 BOUNDARY    124   LAYER   1   ROW     9   COL     4   RATE     630.000    
 BOUNDARY    125   LAYER   1   ROW     9   COL     5   RATE     630.000    
 BOUNDARY    126   LAYER   1   ROW     9   COL     6   RATE     630.000    
 BOUNDARY    127   LAYER   1   ROW     9   COL     7   RATE     630.000    
 BOUNDARY    128   LAYER   1   ROW     9   COL     8   RATE     630.000    
 BOUNDARY    129   LAYER   1   ROW     9   COL     9   RATE     630.000    
 BOUNDARY    130   LAYER   1   ROW     9   COL    10   RATE     630.000    
 BOUNDARY    131   LAYER   1   ROW     9   COL    11   RATE     630.000    
 BOUNDARY    132   LAYER   1   ROW     9   COL    12   RATE     630.000    
 BOUNDARY    133   LAYER   1   ROW     9   COL    13   RATE     630.000    
 BOUNDARY    134   LAYER   1   ROW     9   COL    14   RATE     630.000    
 BOUNDARY    135   LAYER   1   ROW     9   COL    15   RATE     630.000    
 BOUNDARY    136   LAYER   1   ROW    10   COL     1   RATE     630.000    
 BOUNDARY    137   LAYER   1   ROW    10   COL     2   RATE     630.000    
 BOUNDARY    138   LAYER   1   ROW    10   COL     3   RATE     630.000    
 BOUNDARY    139   LAYER   1   ROW    10   COL     4   RATE     630.000    
 BOUNDARY    140   LAYER   1   ROW    10   COL     5   RATE     630.000    
 BOUNDARY    141   LAYER   1   ROW    10   COL     6   RATE     630.000    
 BOUNDARY    142   LAYER   1   ROW    10   COL     7   RATE     630.000    
 BOUNDARY    143   LAYER   1   ROW    10   COL     8   RATE     630.000    
 BOUNDARY    144   LAYER   1   ROW    10   COL     9   RATE     630.000    
 BOUNDARY    145   LAYER   1   ROW    10   COL    10   RATE     630.000    
 BOUNDARY    146   LAYER   1   ROW    10   COL    11   RATE     630.000    
 BOUNDARY    147   LAYER   1   ROW    10   COL    12   RATE     630.000    
 BOUNDARY    148   LAYER   1   ROW    10   COL    13   RATE     630.000    
 BOUNDARY    149   LAYER   1   ROW    10   COL    14   RATE     630.000    
 BOUNDARY    150   LAYER   1   ROW    10   COL    15   RATE     630.000    
 UBDSV4 SAVING ET SEGS          ON UNIT   1016 AT TIME STEP      2, STRESS PERIOD      4

 ET SEGS            PERIOD  4   STEP  2
 BOUNDARY      1   LAYER   1   ROW     1   COL     1   RATE    -2.37200    
 BOUNDARY      2   LAYER   1   ROW     1   COL     2   RATE    -9.22418    
 BOUNDARY      3   LAYER   1   ROW     1   COL     3   RATE    -52.8128    
 BOUNDARY      4   LAYER   1   ROW     1   COL     4   RATE   -100.0000    
 BOUNDARY      5   LAYER   1   ROW     1   COL     5   RATE   -100.0000    
 BOUNDARY      6   LAYER   1   ROW     1   COL     6   RATE   -100.0000    
 BOUNDARY      7   LAYER   1   ROW     1   COL     7   RATE   -100.0000    
 BOUNDARY      8   LAYER   1   ROW     1   COL     8   RATE   -100.0000    
 BOUNDARY      9   LAYER   1   ROW     1   COL     9   RATE   -100.0000    
 BOUNDARY     10   LAYER   1   ROW     1   COL    10   RATE   -100.0000    
 BOUNDARY     11   LAYER   1   ROW     1   COL    11   RATE   -100.0000    
 BOUNDARY     12   LAYER   1   ROW     1   COL    12   RATE    -17.5675    
 BOUNDARY     13   LAYER   1   ROW     1   COL    13   RATE     0.00000    
 BOUNDARY     14   LAYER   1   ROW     1   COL    14   RATE     0.00000    
 BOUNDARY     15   LAYER   1   ROW     1   COL    15   RATE     0.00000    
 BOUNDARY     16   LAYER   1   ROW     2   COL     1   RATE     0.00000    
 BOUNDARY     17   LAYER   1   ROW     2   COL     2   RATE    -4.69800    
 BOUNDARY     18   LAYER   1   ROW     2   COL     3   RATE    -28.8386    
 BOUNDARY     19   LAYER   1   ROW     2   COL     4   RATE   -100.0000    
 BOUNDARY     20   LAYER   1   ROW     2   COL     5   RATE   -100.0000    
 BOUNDARY     21   LAYER   1   ROW     2   COL     6   RATE   -100.0000    
 BOUNDARY     22   LAYER   1   ROW     2   COL     7   RATE   -100.0000    
 BOUNDARY     23   LAYER   1   ROW     2   COL     8   RATE   -100.0000    
 BOUNDARY     24   LAYER   1   ROW     2   COL     9   RATE   -100.0000    
 BOUNDARY     25   LAYER   1   ROW     2   COL    10   RATE   -100.0000    
 BOUNDARY     26   LAYER   1   ROW     2   COL    11   RATE   -100.0000    
 BOUNDARY     27   LAYER   1   ROW     2   COL    12   RATE    -19.3074    
 BOUNDARY     28   LAYER   1   ROW     2   COL    13   RATE   -0.350225    
 BOUNDARY     29   LAYER   1   ROW     2   COL    14   RATE     0.00000    
 BOUNDARY     30   LAYER   1   ROW     2   COL    15   RATE     0.00000    
 BOUNDARY     31   LAYER   1   ROW     3   COL     1   RATE     0.00000    
 BOUNDARY     32   LAYER   1   ROW     3   COL     2   RATE     0.00000    
 BOUNDARY     33   LAYER   1   ROW     3   COL     3   RATE    -22.9936    
 BOUNDARY     34   LAYER   1   ROW     3   COL     4   RATE   -100.0000    
 BOUNDARY     35   LAYER   1   ROW     3   COL     5   RATE   -100.0000    
 BOUNDARY     36   LAYER   1   ROW     3   COL     6   RATE   -100.0000    
 BOUNDARY     37   LAYER   1   ROW     3   COL     7   RATE   -100.0000    
 BOUNDARY     38   LAYER   1   ROW     3   COL     8   RATE   -100.0000    
 BOUNDARY     39   LAYER   1   ROW     3   COL     9   RATE   -100.0000    
 BOUNDARY     40   LAYER   1   ROW     3   COL    10   RATE   -100.0000    
 BOUNDARY     41   LAYER   1   ROW     3   COL    11   RATE   -100.0000    
 BOUNDARY     42   LAYER   1   ROW     3   COL    12   RATE    -22.2422    
 BOUNDARY     43   LAYER   1   ROW     3   COL    13   RATE    -2.14098    
 BOUNDARY     44   LAYER   1   ROW     3   COL    14   RATE     0.00000    
 BOUNDARY     45   LAYER   1   ROW     3   COL    15   RATE     0.00000    
 BOUNDARY     46   LAYER   1   ROW     4   COL     1   RATE     0.00000    
 BOUNDARY     47   LAYER   1   ROW     4   COL     2   RATE    -3.19331    
 BOUNDARY     48   LAYER   1   ROW     4   COL     3   RATE    -26.8912    
 BOUNDARY     49   LAYER   1   ROW     4   COL     4   RATE   -100.0000    
 BOUNDARY     50   LAYER   1   ROW     4   COL     5   RATE   -100.0000    
 BOUNDARY     51   LAYER   1   ROW     4   COL     6   RATE   -100.0000    
 BOUNDARY     52   LAYER   1   ROW     4   COL     7   RATE   -100.0000    
 BOUNDARY     53   LAYER   1   ROW     4   COL     8   RATE   -100.0000    
 BOUNDARY     54   LAYER   1   ROW     4   COL     9   RATE   -100.0000    
 BOUNDARY     55   LAYER   1   ROW     4   COL    10   RATE   -100.0000    
 BOUNDARY     56   LAYER   1   ROW     4   COL    11   RATE   -100.0000    
 BOUNDARY     57   LAYER   1   ROW     4   COL    12   RATE    -25.0368    
 BOUNDARY     58   LAYER   1   ROW     4   COL    13   RATE    -3.59743    
 BOUNDARY     59   LAYER   1   ROW     4   COL    14   RATE     0.00000    
 BOUNDARY     60   LAYER   1   ROW     4   COL    15   RATE     0.00000    
 BOUNDARY     61   LAYER   1   ROW     5   COL     1   RATE     0.00000    
 BOUNDARY     62   LAYER   1   ROW     5   COL     2   RATE    -6.16932    
 BOUNDARY     63   LAYER   1   ROW     5   COL     3   RATE    -34.5869    
 BOUNDARY     64   LAYER   1   ROW     5   COL     4   RATE   -100.0000    
 BOUNDARY     65   LAYER   1   ROW     5   COL     5   RATE   -100.0000    
 BOUNDARY     66   LAYER   1   ROW     5   COL     6   RATE   -100.0000    
 BOUNDARY     67   LAYER   1   ROW     5   COL     7   RATE   -100.0000    
 BOUNDARY     68   LAYER   1   ROW     5   COL     8   RATE   -100.0000    
 BOUNDARY     69   LAYER   1   ROW     5   COL     9   RATE   -100.0000    
 BOUNDARY     70   LAYER   1   ROW     5   COL    10   RATE   -100.0000    
 BOUNDARY     71   LAYER   1   ROW     5   COL    11   RATE   -100.0000    
 BOUNDARY     72   LAYER   1   ROW     5   COL    12   RATE    -26.9644    
 BOUNDARY     73   LAYER   1   ROW     5   COL    13   RATE    -4.49185    
 BOUNDARY     74   LAYER   1   ROW     5   COL    14   RATE     0.00000    
 BOUNDARY     75   LAYER   1   ROW     5   COL    15   RATE     0.00000    
 BOUNDARY     76   LAYER   1   ROW     6   COL     1   RATE     0.00000    
 BOUNDARY     77   LAYER   1   ROW     6   COL     2   RATE    -4.73516    
 BOUNDARY     78   LAYER   1   ROW     6   COL     3   RATE    -38.4215    
 BOUNDARY     79   LAYER   1   ROW     6   COL     4   RATE   -100.0000    
 BOUNDARY     80   LAYER   1   ROW     6   COL     5   RATE   -100.0000    
 BOUNDARY     81   LAYER   1   ROW     6   COL     6   RATE   -100.0000    
 BOUNDARY     82   LAYER   1   ROW     6   COL     7   RATE   -100.0000    
 BOUNDARY     83   LAYER   1   ROW     6   COL     8   RATE   -100.0000    
 BOUNDARY     84   LAYER   1   ROW     6   COL     9   RATE   -100.0000    
 BOUNDARY     85   LAYER   1   ROW     6   COL    10   RATE   -100.0000    
 BOUNDARY     86   LAYER   1   ROW     6   COL    11   RATE   -100.0000    
 BOUNDARY     87   LAYER   1   ROW     6   COL    12   RATE    -27.6115    
 BOUNDARY     88   LAYER   1   ROW     6   COL    13   RATE    -4.44707    
 BOUNDARY     89   LAYER   1   ROW     6   COL    14   RATE     0.00000    
 BOUNDARY     90   LAYER   1   ROW     6   COL    15   RATE     0.00000    
 BOUNDARY     91   LAYER   1   ROW     7   COL     1   RATE     0.00000    
 BOUNDARY     92   LAYER   1   ROW     7   COL     2   RATE    -1.22387    
 BOUNDARY     93   LAYER   1   ROW     7   COL     3   RATE    -45.2731    
 BOUNDARY     94   LAYER   1   ROW     7   COL     4   RATE   -100.0000    
 BOUNDARY     95   LAYER   1   ROW     7   COL     5   RATE   -100.0000    
 BOUNDARY     96   LAYER   1   ROW     7   COL     6   RATE   -100.0000    
 BOUNDARY     97   LAYER   1   ROW     7   COL     7   RATE   -100.0000    
 BOUNDARY     98   LAYER   1   ROW     7   COL     8   RATE   -100.0000    
 BOUNDARY     99   LAYER   1   ROW     7   COL     9   RATE   -100.0000    
 BOUNDARY    100   LAYER   1   ROW     7   COL    10   RATE   -100.0000    
 BOUNDARY    101   LAYER   1   ROW     7   COL    11   RATE   -100.0000    
 BOUNDARY    102   LAYER   1   ROW     7   COL    12   RATE    -27.4563    
 BOUNDARY    103   LAYER   1   ROW     7   COL    13   RATE    -3.72286    
 BOUNDARY    104   LAYER   1   ROW     7   COL    14   RATE     0.00000    
 BOUNDARY    105   LAYER   1   ROW     7   COL    15   RATE     0.00000    
 BOUNDARY    106   LAYER   1   ROW     8   COL     1   RATE     0.00000    
 BOUNDARY    107   LAYER   1   ROW     8   COL     2   RATE    -11.9960    
 BOUNDARY    108   LAYER   1   ROW     8   COL     3   RATE   -100.0000    
 BOUNDARY    109   LAYER   1   ROW     8   COL     4   RATE   -100.0000    
 BOUNDARY    110   LAYER   1   ROW     8   COL     5   RATE   -100.0000    
 BOUNDARY    111   LAYER   1   ROW     8   COL     6   RATE   -100.0000    
 BOUNDARY    112   LAYER   1   ROW     8   COL     7   RATE   -100.0000    
 BOUNDARY    113   LAYER   1   ROW     8   COL     8   RATE   -100.0000    
 BOUNDARY    114   LAYER   1   ROW     8   COL     9   RATE   -100.0000    
 BOUNDARY    115   LAYER   1   ROW     8   COL    10   RATE   -100.0000    
 BOUNDARY    116   LAYER   1   ROW     8   COL    11   RATE   -100.0000    
 BOUNDARY    117   LAYER   1   ROW     8   COL    12   RATE    -27.8544    
 BOUNDARY    118   LAYER   1   ROW     8   COL    13   RATE    -3.73910    
 BOUNDARY    119   LAYER   1   ROW     8   COL    14   RATE     0.00000    
 BOUNDARY    120   LAYER   1   ROW     8   COL    15   RATE     0.00000    
 BOUNDARY    121   LAYER   1   ROW     9   COL     1   RATE    -19.5828    
 BOUNDARY    122   LAYER   1   ROW     9   COL     2   RATE    -64.4105    
 BOUNDARY    123   LAYER   1   ROW     9   COL     3   RATE   -100.0000    
 BOUNDARY    124   LAYER   1   ROW     9   COL     4   RATE   -100.0000    
 BOUNDARY    125   LAYER   1   ROW     9   COL     5   RATE   -100.0000    
 BOUNDARY    126   LAYER   1   ROW     9   COL     6   RATE   -100.0000    
 BOUNDARY    127   LAYER   1   ROW     9   COL     7   RATE   -100.0000    
 BOUNDARY    128   LAYER   1   ROW     9   COL     8   RATE   -100.0000    
 BOUNDARY    129   LAYER   1   ROW     9   COL     9   RATE   -100.0000    
 BOUNDARY    130   LAYER   1   ROW     9   COL    10   RATE   -100.0000    
 BOUNDARY    131   LAYER   1   ROW     9   COL    11   RATE   -100.0000    
 BOUNDARY    132   LAYER   1   ROW     9   COL    12   RATE    -28.9665    
 BOUNDARY    133   LAYER   1   ROW     9   COL    13   RATE    -4.57932    
 BOUNDARY    134   LAYER   1   ROW     9   COL    14   RATE     0.00000    
 BOUNDARY    135   LAYER   1   ROW     9   COL    15   RATE     0.00000    
 BOUNDARY    136   LAYER   1   ROW    10   COL     1   RATE    -72.6192    
 BOUNDARY    137   LAYER   1   ROW    10   COL     2   RATE   -100.0000    
 BOUNDARY    138   LAYER   1   ROW    10   COL     3   RATE   -100.0000    
 BOUNDARY    139   LAYER   1   ROW    10   COL     4   RATE   -100.0000    
 BOUNDARY    140   LAYER   1   ROW    10   COL     5   RATE   -100.0000    
 BOUNDARY    141   LAYER   1   ROW    10   COL     6   RATE   -100.0000    
 BOUNDARY    142   LAYER   1   ROW    10   COL     7   RATE   -100.0000    
 BOUNDARY    143   LAYER   1   ROW    10   COL     8   RATE   -100.0000    
 BOUNDARY    144   LAYER   1   ROW    10   COL     9   RATE   -100.0000    
 BOUNDARY    145   LAYER   1   ROW    10   COL    10   RATE   -100.0000    
 BOUNDARY    146   LAYER   1   ROW    10   COL    11   RATE   -100.0000    
 BOUNDARY    147   LAYER   1   ROW    10   COL    12   RATE    -29.7687    
 BOUNDARY    148   LAYER   1   ROW    10   COL    13   RATE    -5.11573    
 BOUNDARY    149   LAYER   1   ROW    10   COL    14   RATE     0.00000    
 BOUNDARY    150   LAYER   1   ROW    10   COL    15   RATE     0.00000    

 HEAD WILL BE SAVED ON UNIT 1017 AT END OF TIME STEP    2, STRESS PERIOD    4
WEL   no.    1 value from time series:   0.0000     for time:  62.00     to  63.00    
WEL   no.    2 value from time series:   0.0000     for time:  62.00     to  63.00    
RIV   no.    1 value from time series:   101.00     for time:  62.00     to  63.00    
RIV   no.    2 value from time series:   101.00     for time:  62.00     to  63.00    
RIV   no.    3 value from time series:   111.50     for time:  62.00     to  63.00    
RIV   no.    4 value from time series:   111.50     for time:  62.00     to  63.00    
RIV   no.    5 value from time series:   115.10     for time:  62.00     to  63.00    
RIV   no.    6 value from time series:   115.10     for time:  62.00     to  63.00    
RIV   no.    7 value from time series:   104.00     for time:  62.00     to  63.00    
RIV   no.    8 value from time series:   104.00     for time:  62.00     to  63.00    
RIV   no.    9 value from time series:   113.50     for time:  62.00     to  63.00    
RIV   no.   10 value from time series:   113.50     for time:  62.00     to  63.00    
WEL   no.    1 value from time series:   0.0000     for time:  62.00     to  63.00    
WEL   no.    2 value from time series:   0.0000     for time:  62.00     to  63.00    
RIV   no.    1 value from time series:   101.00     for time:  62.00     to  63.00    
RIV   no.    2 value from time series:   101.00     for time:  62.00     to  63.00    
RIV   no.    3 value from time series:   111.50     for time:  62.00     to  63.00    
RIV   no.    4 value from time series:   111.50     for time:  62.00     to  63.00    
RIV   no.    5 value from time series:   115.10     for time:  62.00     to  63.00    
RIV   no.    6 value from time series:   115.10     for time:  62.00     to  63.00    
RIV   no.    7 value from time series:   104.00     for time:  62.00     to  63.00    
RIV   no.    8 value from time series:   104.00     for time:  62.00     to  63.00    
RIV   no.    9 value from time series:   113.50     for time:  62.00     to  63.00    
RIV   no.   10 value from time series:   113.50     for time:  62.00     to  63.00    

 OUTPUT CONTROL FOR STRESS PERIOD    4   TIME STEP    3
    SAVE BUDGET
    SAVE HEAD
    SAVE HEAD FOR ALL LAYERS
 UBDSV1 SAVING          STORAGE ON UNIT   1016 AT TIME STEP      3, STRESS PERIOD      4
 UBDSV1 SAVING FLOW RIGHT FACE  ON UNIT   1016 AT TIME STEP      3, STRESS PERIOD      4
 UBDSV1 SAVING FLOW FRONT FACE  ON UNIT   1016 AT TIME STEP      3, STRESS PERIOD      4
 UBDSV1 SAVING FLOW LOWER FACE  ON UNIT   1016 AT TIME STEP      3, STRESS PERIOD      4
 UBDSV4 SAVING WELLS NEAR RIVER ON UNIT   1016 AT TIME STEP      3, STRESS PERIOD      4

 WELLS NEAR RIVER   PERIOD  4   STEP  3
 BOUNDARY      1   LAYER   2   ROW     8   COL     4   RATE     0.00000      WELL_2
 BOUNDARY      2   LAYER   2   ROW     3   COL     4   RATE     0.00000      WELL_1
 UBDSV4 SAVING RIVER            ON UNIT   1016 AT TIME STEP      3, STRESS PERIOD      4

 RIVER              PERIOD  4   STEP  3
 BOUNDARY      1   LAYER   1   ROW     1   COL    15   RATE    -4808.97    
 BOUNDARY      2   LAYER   1   ROW     2   COL    15   RATE    -5926.97      RIV2
 BOUNDARY      3   LAYER   1   ROW     3   COL    15   RATE    -2183.52      RIV3
 BOUNDARY      4   LAYER   1   ROW     4   COL    15   RATE    -3643.91    
 BOUNDARY      5   LAYER   1   ROW     5   COL    15   RATE    -2285.00    
 BOUNDARY      6   LAYER   1   ROW     6   COL    15   RATE    -1635.76    
 BOUNDARY      7   LAYER   1   ROW     7   COL    15   RATE    -6116.96      RIVX
 BOUNDARY      8   LAYER   1   ROW     8   COL    15   RATE    -5958.87      RIVX
 BOUNDARY      9   LAYER   1   ROW     9   COL    15   RATE    -2160.42      RIVX
 BOUNDARY     10   LAYER   1   ROW    10   COL    15   RATE    -3059.11    

 GHB LAKES          PERIOD  4   STEP  3
 BOUNDARY      1   LAYER   1   ROW     3   COL     1   RATE    -14550.1    
 BOUNDARY      2   LAYER   1   ROW     7   COL     1   RATE    -1901.87      GHB2_UPPER
 BOUNDARY      3   LAYER   1   ROW     7   COL     1   RATE    -13256.9      GHB2_LOWER
 UBDSV4 SAVING RECHARGE         ON UNIT   1016 AT TIME STEP      3, STRESS PERIOD      4

 RECHARGE           PERIOD  4   STEP  3
 BOUNDARY      1   LAYER   1   ROW     1   COL     1   RATE     633.333    
 BOUNDARY      2   LAYER   1   ROW     1   COL     2   RATE     633.333    
 BOUNDARY      3   LAYER   1   ROW     1   COL     3   RATE     633.333    
 BOUNDARY      4   LAYER   1   ROW     1   COL     4   RATE     633.333    
 BOUNDARY      5   LAYER   1   ROW     1   COL     5   RATE     633.333    
 BOUNDARY      6   LAYER   1   ROW     1   COL     6   RATE     633.333    
 BOUNDARY      7   LAYER   1   ROW     1   COL     7   RATE     633.333    
 BOUNDARY      8   LAYER   1   ROW     1   COL     8   RATE     633.333    
 BOUNDARY      9   LAYER   1   ROW     1   COL     9   RATE     633.333    
 BOUNDARY     10   LAYER   1   ROW     1   COL    10   RATE     633.333    
 BOUNDARY     11   LAYER   1   ROW     1   COL    11   RATE     633.333    
 BOUNDARY     12   LAYER   1   ROW     1   COL    12   RATE     633.333    
 BOUNDARY     13   LAYER   1   ROW     1   COL    13   RATE     633.333    
 BOUNDARY     14   LAYER   1   ROW     1   COL    14   RATE     633.333    
 BOUNDARY     15   LAYER   1   ROW     1   COL    15   RATE     633.333    
 BOUNDARY     16   LAYER   1   ROW     2   COL     1   RATE     633.333    
 BOUNDARY     17   LAYER   1   ROW     2   COL     2   RATE     633.333    
 BOUNDARY     18   LAYER   1   ROW     2   COL     3   RATE     633.333    
 BOUNDARY     19   LAYER   1   ROW     2   COL     4   RATE     633.333    
 BOUNDARY     20   LAYER   1   ROW     2   COL     5   RATE     633.333    
 BOUNDARY     21   LAYER   1   ROW     2   COL     6   RATE     633.333    
 BOUNDARY     22   LAYER   1   ROW     2   COL     7   RATE     633.333    
 BOUNDARY     23   LAYER   1   ROW     2   COL     8   RATE     633.333    
 BOUNDARY     24   LAYER   1   ROW     2   COL     9   RATE     633.333    
 BOUNDARY     25   LAYER   1   ROW     2   COL    10   RATE     633.333    
 BOUNDARY     26   LAYER   1   ROW     2   COL    11   RATE     633.333    
 BOUNDARY     27   LAYER   1   ROW     2   COL    12   RATE     633.333    
 BOUNDARY     28   LAYER   1   ROW     2   COL    13   RATE     633.333    
 BOUNDARY     29   LAYER   1   ROW     2   COL    14   RATE     633.333    
 BOUNDARY     30   LAYER   1   ROW     2   COL    15   RATE     633.333    
 BOUNDARY     31   LAYER   1   ROW     3   COL     1   RATE     633.333    
 BOUNDARY     32   LAYER   1   ROW     3   COL     2   RATE     633.333    
 BOUNDARY     33   LAYER   1   ROW     3   COL     3   RATE     633.333    
 BOUNDARY     34   LAYER   1   ROW     3   COL     4   RATE     633.333    
 BOUNDARY     35   LAYER   1   ROW     3   COL     5   RATE     633.333    
 BOUNDARY     36   LAYER   1   ROW     3   COL     6   RATE     633.333    
 BOUNDARY     37   LAYER   1   ROW     3   COL     7   RATE     633.333    
 BOUNDARY     38   LAYER   1   ROW     3   COL     8   RATE     633.333    
 BOUNDARY     39   LAYER   1   ROW     3   COL     9   RATE     633.333    
 BOUNDARY     40   LAYER   1   ROW     3   COL    10   RATE     633.333    
 BOUNDARY     41   LAYER   1   ROW     3   COL    11   RATE     633.333    
 BOUNDARY     42   LAYER   1   ROW     3   COL    12   RATE     633.333    
 BOUNDARY     43   LAYER   1   ROW     3   COL    13   RATE     633.333    
 BOUNDARY     44   LAYER   1   ROW     3   COL    14   RATE     633.333    
 BOUNDARY     45   LAYER   1   ROW     3   COL    15   RATE     633.333    
 BOUNDARY     46   LAYER   1   ROW     4   COL     1   RATE     633.333    
 BOUNDARY     47   LAYER   1   ROW     4   COL     2   RATE     633.333    
 BOUNDARY     48   LAYER   1   ROW     4   COL     3   RATE     633.333    
 BOUNDARY     49   LAYER   1   ROW     4   COL     4   RATE     633.333    
 BOUNDARY     50   LAYER   1   ROW     4   COL     5   RATE     633.333    
 BOUNDARY     51   LAYER   1   ROW     4   COL     6   RATE     633.333    
 BOUNDARY     52   LAYER   1   ROW     4   COL     7   RATE     633.333    
 BOUNDARY     53   LAYER   1   ROW     4   COL     8   RATE     633.333    
 BOUNDARY     54   LAYER   1   ROW     4   COL     9   RATE     633.333    
 BOUNDARY     55   LAYER   1   ROW     4   COL    10   RATE     633.333    
 BOUNDARY     56   LAYER   1   ROW     4   COL    11   RATE     633.333    
 BOUNDARY     57   LAYER   1   ROW     4   COL    12   RATE     633.333    
 BOUNDARY     58   LAYER   1   ROW     4   COL    13   RATE     633.333    
 BOUNDARY     59   LAYER   1   ROW     4   COL    14   RATE     633.333    
 BOUNDARY     60   LAYER   1   ROW     4   COL    15   RATE     633.333    
 BOUNDARY     61   LAYER   1   ROW     5   COL     1   RATE     633.333    
 BOUNDARY     62   LAYER   1   ROW     5   COL     2   RATE     633.333    
 BOUNDARY     63   LAYER   1   ROW     5   COL     3   RATE     633.333    
 BOUNDARY     64   LAYER   1   ROW     5   COL     4   RATE     633.333    
 BOUNDARY     65   LAYER   1   ROW     5   COL     5   RATE     633.333    
 BOUNDARY     66   LAYER   1   ROW     5   COL     6   RATE     633.333    
 BOUNDARY     67   LAYER   1   ROW     5   COL     7   RATE     633.333    
 BOUNDARY     68   LAYER   1   ROW     5   COL     8   RATE     633.333    
 BOUNDARY     69   LAYER   1   ROW     5   COL     9   RATE     633.333    
 BOUNDARY     70   LAYER   1   ROW     5   COL    10   RATE     633.333    
 BOUNDARY     71   LAYER   1   ROW     5   COL    11   RATE     633.333    
 BOUNDARY     72   LAYER   1   ROW     5   COL    12   RATE     633.333    
 BOUNDARY     73   LAYER   1   ROW     5   COL    13   RATE     633.333    
 BOUNDARY     74   LAYER   1   ROW     5   COL    14   RATE     633.333    
 BOUNDARY     75   LAYER   1   ROW     5   COL    15   RATE     633.333    
 BOUNDARY     76   LAYER   1   ROW     6   COL     1   RATE     633.333    
 BOUNDARY     77   LAYER   1   ROW     6   COL     2   RATE     633.333    
 BOUNDARY     78   LAYER   1   ROW     6   COL     3   RATE     633.333    
 BOUNDARY     79   LAYER   1   ROW     6   COL     4   RATE     633.333    
 BOUNDARY     80   LAYER   1   ROW     6   COL     5   RATE     633.333    
 BOUNDARY     81   LAYER   1   ROW     6   COL     6   RATE     633.333    
 BOUNDARY     82   LAYER   1   ROW     6   COL     7   RATE     633.333    
 BOUNDARY     83   LAYER   1   ROW     6   COL     8   RATE     633.333    
 BOUNDARY     84   LAYER   1   ROW     6   COL     9   RATE     633.333    
 BOUNDARY     85   LAYER   1   ROW     6   COL    10   RATE     633.333    
 BOUNDARY     86   LAYER   1   ROW     6   COL    11   RATE     633.333    
 BOUNDARY     87   LAYER   1   ROW     6   COL    12   RATE     633.333    
 BOUNDARY     88   LAYER   1   ROW     6   COL    13   RATE     633.333    
 BOUNDARY     89   LAYER   1   ROW     6   COL    14   RATE     633.333    
 BOUNDARY     90   LAYER   1   ROW     6   COL    15   RATE     633.333    
 BOUNDARY     91   LAYER   1   ROW     7   COL     1   RATE     633.333    
 BOUNDARY     92   LAYER   1   ROW     7   COL     2   RATE     633.333    
 BOUNDARY     93   LAYER   1   ROW     7   COL     3   RATE     633.333    
 BOUNDARY     94   LAYER   1   ROW     7   COL     4   RATE     633.333    
 BOUNDARY     95   LAYER   1   ROW     7   COL     5   RATE     633.333    
 BOUNDARY     96   LAYER   1   ROW     7   COL     6   RATE     633.333    
 BOUNDARY     97   LAYER   1   ROW     7   COL     7   RATE     633.333    
 BOUNDARY     98   LAYER   1   ROW     7   COL     8   RATE     633.333    
 BOUNDARY     99   LAYER   1   ROW     7   COL     9   RATE     633.333    
 BOUNDARY    100   LAYER   1   ROW     7   COL    10   RATE     633.333    
 BOUNDARY    101   LAYER   1   ROW     7   COL    11   RATE     633.333    
 BOUNDARY    102   LAYER   1   ROW     7   COL    12   RATE     633.333    
 BOUNDARY    103   LAYER   1   ROW     7   COL    13   RATE     633.333    
 BOUNDARY    104   LAYER   1   ROW     7   COL    14   RATE     633.333    
 BOUNDARY    105   LAYER   1   ROW     7   COL    15   RATE     633.333    
 BOUNDARY    106   LAYER   1   ROW     8   COL     1   RATE     633.333    
 BOUNDARY    107   LAYER   1   ROW     8   COL     2   RATE     633.333    
 BOUNDARY    108   LAYER   1   ROW     8   COL     3   RATE     633.333    
 BOUNDARY    109   LAYER   1   ROW     8   COL     4   RATE     633.333    
 BOUNDARY    110   LAYER   1   ROW     8   COL     5   RATE     633.333    
 BOUNDARY    111   LAYER   1   ROW     8   COL     6   RATE     633.333    
 BOUNDARY    112   LAYER   1   ROW     8   COL     7   RATE     633.333    
 BOUNDARY    113   LAYER   1   ROW     8   COL     8   RATE     633.333    
 BOUNDARY    114   LAYER   1   ROW     8   COL     9   RATE     633.333    
 BOUNDARY    115   LAYER   1   ROW     8   COL    10   RATE     633.333    
 BOUNDARY    116   LAYER   1   ROW     8   COL    11   RATE     633.333    
 BOUNDARY    117   LAYER   1   ROW     8   COL    12   RATE     633.333    
 BOUNDARY    118   LAYER   1   ROW     8   COL    13   RATE     633.333    
 BOUNDARY    119   LAYER   1   ROW     8   COL    14   RATE     633.333    
 BOUNDARY    120   LAYER   1   ROW     8   COL    15   RATE     633.333    
 BOUNDARY    121   LAYER   1   ROW     9   COL     1   RATE     633.333    
 BOUNDARY    122   LAYER   1   ROW     9   COL     2   RATE     633.333    
 BOUNDARY    123   LAYER   1   ROW     9   COL     3   RATE     633.333    
 BOUNDARY    124   LAYER   1   ROW     9   COL     4   RATE     633.333    
 BOUNDARY    125   LAYER   1   ROW     9   COL     5   RATE     633.333    
 BOUNDARY    126   LAYER   1   ROW     9   COL     6   RATE     633.333    
 BOUNDARY    127   LAYER   1   ROW     9   COL     7   RATE     633.333    
 BOUNDARY    128   LAYER   1   ROW     9   COL     8   RATE     633.333    
 BOUNDARY    129   LAYER   1   ROW     9   COL     9   RATE     633.333    
 BOUNDARY    130   LAYER   1   ROW     9   COL    10   RATE     633.333    
 BOUNDARY    131   LAYER   1   ROW     9   COL    11   RATE     633.333    
 BOUNDARY    132   LAYER   1   ROW     9   COL    12   RATE     633.333    
 BOUNDARY    133   LAYER   1   ROW     9   COL    13   RATE     633.333    
 BOUNDARY    134   LAYER   1   ROW     9   COL    14   RATE     633.333    
 BOUNDARY    135   LAYER   1   ROW     9   COL    15   RATE     633.333    
 BOUNDARY    136   LAYER   1   ROW    10   COL     1   RATE     633.333    
 BOUNDARY    137   LAYER   1   ROW    10   COL     2   RATE     633.333    
 BOUNDARY    138   LAYER   1   ROW    10   COL     3   RATE     633.333    
 BOUNDARY    139   LAYER   1   ROW    10   COL     4   RATE     633.333    
 BOUNDARY    140   LAYER   1   ROW    10   COL     5   RATE     633.333    
 BOUNDARY    141   LAYER   1   ROW    10   COL     6   RATE     633.333    
 BOUNDARY    142   LAYER   1   ROW    10   COL     7   RATE     633.333    
 BOUNDARY    143   LAYER   1   ROW    10   COL     8   RATE     633.333    
 BOUNDARY    144   LAYER   1   ROW    10   COL     9   RATE     633.333    
 BOUNDARY    145   LAYER   1   ROW    10   COL    10   RATE     633.333    
 BOUNDARY    146   LAYER   1   ROW    10   COL    11   RATE     633.333    
 BOUNDARY    147   LAYER   1   ROW    10   COL    12   RATE     633.333    
 BOUNDARY    148   LAYER   1   ROW    10   COL    13   RATE     633.333    
 BOUNDARY    149   LAYER   1   ROW    10   COL    14   RATE     633.333    
 BOUNDARY    150   LAYER   1   ROW    10   COL    15   RATE     633.333    
 UBDSV4 SAVING ET SEGS          ON UNIT   1016 AT TIME STEP      3, STRESS PERIOD      4

 ET SEGS            PERIOD  4   STEP  3
 BOUNDARY      1   LAYER   1   ROW     1   COL     1   RATE    -2.38217    
 BOUNDARY      2   LAYER   1   ROW     1   COL     2   RATE    -9.23429    
 BOUNDARY      3   LAYER   1   ROW     1   COL     3   RATE    -52.9853    
 BOUNDARY      4   LAYER   1   ROW     1   COL     4   RATE   -100.0000    
 BOUNDARY      5   LAYER   1   ROW     1   COL     5   RATE   -100.0000    
 BOUNDARY      6   LAYER   1   ROW     1   COL     6   RATE   -100.0000    
 BOUNDARY      7   LAYER   1   ROW     1   COL     7   RATE   -100.0000    
 BOUNDARY      8   LAYER   1   ROW     1   COL     8   RATE   -100.0000    
 BOUNDARY      9   LAYER   1   ROW     1   COL     9   RATE   -100.0000    
 BOUNDARY     10   LAYER   1   ROW     1   COL    10   RATE   -100.0000    
 BOUNDARY     11   LAYER   1   ROW     1   COL    11   RATE   -100.0000    
 BOUNDARY     12   LAYER   1   ROW     1   COL    12   RATE    -17.6030    
 BOUNDARY     13   LAYER   1   ROW     1   COL    13   RATE     0.00000    
 BOUNDARY     14   LAYER   1   ROW     1   COL    14   RATE     0.00000    
 BOUNDARY     15   LAYER   1   ROW     1   COL    15   RATE     0.00000    
 BOUNDARY     16   LAYER   1   ROW     2   COL     1   RATE     0.00000    
 BOUNDARY     17   LAYER   1   ROW     2   COL     2   RATE    -4.70784    
 BOUNDARY     18   LAYER   1   ROW     2   COL     3   RATE    -28.8810    
 BOUNDARY     19   LAYER   1   ROW     2   COL     4   RATE   -100.0000    
 BOUNDARY     20   LAYER   1   ROW     2   COL     5   RATE   -100.0000    
 BOUNDARY     21   LAYER   1   ROW     2   COL     6   RATE   -100.0000    
 BOUNDARY     22   LAYER   1   ROW     2   COL     7   RATE   -100.0000    
 BOUNDARY     23   LAYER   1   ROW     2   COL     8   RATE   -100.0000    
 BOUNDARY     24   LAYER   1   ROW     2   COL     9   RATE   -100.0000    
 BOUNDARY     25   LAYER   1   ROW     2   COL    10   RATE   -100.0000    
 BOUNDARY     26   LAYER   1   ROW     2   COL    11   RATE   -100.0000    
 BOUNDARY     27   LAYER   1   ROW     2   COL    12   RATE    -19.3429    
 BOUNDARY     28   LAYER   1   ROW     2   COL    13   RATE   -0.360940    
 BOUNDARY     29   LAYER   1   ROW     2   COL    14   RATE     0.00000    
 BOUNDARY     30   LAYER   1   ROW     2   COL    15   RATE     0.00000    
 BOUNDARY     31   LAYER   1   ROW     3   COL     1   RATE     0.00000    
 BOUNDARY     32   LAYER   1   ROW     3   COL     2   RATE     0.00000    
 BOUNDARY     33   LAYER   1   ROW     3   COL     3   RATE    -23.0269    
 BOUNDARY     34   LAYER   1   ROW     3   COL     4   RATE   -100.0000    
 BOUNDARY     35   LAYER   1   ROW     3   COL     5   RATE   -100.0000    
 BOUNDARY     36   LAYER   1   ROW     3   COL     6   RATE   -100.0000    
 BOUNDARY     37   LAYER   1   ROW     3   COL     7   RATE   -100.0000    
 BOUNDARY     38   LAYER   1   ROW     3   COL     8   RATE   -100.0000    
 BOUNDARY     39   LAYER   1   ROW     3   COL     9   RATE   -100.0000    
 BOUNDARY     40   LAYER   1   ROW     3   COL    10   RATE   -100.0000    
 BOUNDARY     41   LAYER   1   ROW     3   COL    11   RATE   -100.0000    
 BOUNDARY     42   LAYER   1   ROW     3   COL    12   RATE    -22.2778    
 BOUNDARY     43   LAYER   1   ROW     3   COL    13   RATE    -2.15184    
 BOUNDARY     44   LAYER   1   ROW     3   COL    14   RATE     0.00000    
 BOUNDARY     45   LAYER   1   ROW     3   COL    15   RATE     0.00000    
 BOUNDARY     46   LAYER   1   ROW     4   COL     1   RATE     0.00000    
 BOUNDARY     47   LAYER   1   ROW     4   COL     2   RATE    -3.20338    
 BOUNDARY     48   LAYER   1   ROW     4   COL     3   RATE    -26.9252    
 BOUNDARY     49   LAYER   1   ROW     4   COL     4   RATE   -100.0000    
 BOUNDARY     50   LAYER   1   ROW     4   COL     5   RATE   -100.0000    
 BOUNDARY     51   LAYER   1   ROW     4   COL     6   RATE   -100.0000    
 BOUNDARY     52   LAYER   1   ROW     4   COL     7   RATE   -100.0000    
 BOUNDARY     53   LAYER   1   ROW     4   COL     8   RATE   -100.0000    
 BOUNDARY     54   LAYER   1   ROW     4   COL     9   RATE   -100.0000    
 BOUNDARY     55   LAYER   1   ROW     4   COL    10   RATE   -100.0000    
 BOUNDARY     56   LAYER   1   ROW     4   COL    11   RATE   -100.0000    
 BOUNDARY     57   LAYER   1   ROW     4   COL    12   RATE    -25.0721    
 BOUNDARY     58   LAYER   1   ROW     4   COL    13   RATE    -3.60808    
 BOUNDARY     59   LAYER   1   ROW     4   COL    14   RATE     0.00000    
 BOUNDARY     60   LAYER   1   ROW     4   COL    15   RATE     0.00000    
 BOUNDARY     61   LAYER   1   ROW     5   COL     1   RATE     0.00000    
 BOUNDARY     62   LAYER   1   ROW     5   COL     2   RATE    -6.17952    
 BOUNDARY     63   LAYER   1   ROW     5   COL     3   RATE    -34.7645    
 BOUNDARY     64   LAYER   1   ROW     5   COL     4   RATE   -100.0000    
 BOUNDARY     65   LAYER   1   ROW     5   COL     5   RATE   -100.0000    
 BOUNDARY     66   LAYER   1   ROW     5   COL     6   RATE   -100.0000    
 BOUNDARY     67   LAYER   1   ROW     5   COL     7   RATE   -100.0000    
 BOUNDARY     68   LAYER   1   ROW     5   COL     8   RATE   -100.0000    
 BOUNDARY     69   LAYER   1   ROW     5   COL     9   RATE   -100.0000    
 BOUNDARY     70   LAYER   1   ROW     5   COL    10   RATE   -100.0000    
 BOUNDARY     71   LAYER   1   ROW     5   COL    11   RATE   -100.0000    
 BOUNDARY     72   LAYER   1   ROW     5   COL    12   RATE    -26.9993    
 BOUNDARY     73   LAYER   1   ROW     5   COL    13   RATE    -4.50208    
 BOUNDARY     74   LAYER   1   ROW     5   COL    14   RATE     0.00000    
 BOUNDARY     75   LAYER   1   ROW     5   COL    15   RATE     0.00000    
 BOUNDARY     76   LAYER   1   ROW     6   COL     1   RATE     0.00000    
 BOUNDARY     77   LAYER   1   ROW     6   COL     2   RATE    -4.74512    
 BOUNDARY     78   LAYER   1   ROW     6   COL     3   RATE    -38.5979    
 BOUNDARY     79   LAYER   1   ROW     6   COL     4   RATE   -100.0000    
 BOUNDARY     80   LAYER   1   ROW     6   COL     5   RATE   -100.0000    
 BOUNDARY     81   LAYER   1   ROW     6   COL     6   RATE   -100.0000    
 BOUNDARY     82   LAYER   1   ROW     6   COL     7   RATE   -100.0000    
 BOUNDARY     83   LAYER   1   ROW     6   COL     8   RATE   -100.0000    
 BOUNDARY     84   LAYER   1   ROW     6   COL     9   RATE   -100.0000    
 BOUNDARY     85   LAYER   1   ROW     6   COL    10   RATE   -100.0000    
 BOUNDARY     86   LAYER   1   ROW     6   COL    11   RATE   -100.0000    
 BOUNDARY     87   LAYER   1   ROW     6   COL    12   RATE    -27.6462    
 BOUNDARY     88   LAYER   1   ROW     6   COL    13   RATE    -4.45715    
 BOUNDARY     89   LAYER   1   ROW     6   COL    14   RATE     0.00000    
 BOUNDARY     90   LAYER   1   ROW     6   COL    15   RATE     0.00000    
 BOUNDARY     91   LAYER   1   ROW     7   COL     1   RATE     0.00000    
 BOUNDARY     92   LAYER   1   ROW     7   COL     2   RATE    -1.23322    
 BOUNDARY     93   LAYER   1   ROW     7   COL     3   RATE    -45.4483    
 BOUNDARY     94   LAYER   1   ROW     7   COL     4   RATE   -100.0000    
 BOUNDARY     95   LAYER   1   ROW     7   COL     5   RATE   -100.0000    
 BOUNDARY     96   LAYER   1   ROW     7   COL     6   RATE   -100.0000    
 BOUNDARY     97   LAYER   1   ROW     7   COL     7   RATE   -100.0000    
 BOUNDARY     98   LAYER   1   ROW     7   COL     8   RATE   -100.0000    
 BOUNDARY     99   LAYER   1   ROW     7   COL     9   RATE   -100.0000    
 BOUNDARY    100   LAYER   1   ROW     7   COL    10   RATE   -100.0000    
 BOUNDARY    101   LAYER   1   ROW     7   COL    11   RATE   -100.0000    
 BOUNDARY    102   LAYER   1   ROW     7   COL    12   RATE    -27.4913    
 BOUNDARY    103   LAYER   1   ROW     7   COL    13   RATE    -3.73316    
 BOUNDARY    104   LAYER   1   ROW     7   COL    14   RATE     0.00000    
 BOUNDARY    105   LAYER   1   ROW     7   COL    15   RATE     0.00000    
 BOUNDARY    106   LAYER   1   ROW     8   COL     1   RATE     0.00000    
 BOUNDARY    107   LAYER   1   ROW     8   COL     2   RATE    -12.0292    
 BOUNDARY    108   LAYER   1   ROW     8   COL     3   RATE   -100.0000    
 BOUNDARY    109   LAYER   1   ROW     8   COL     4   RATE   -100.0000    
 BOUNDARY    110   LAYER   1   ROW     8   COL     5   RATE   -100.0000    
 BOUNDARY    111   LAYER   1   ROW     8   COL     6   RATE   -100.0000    
 BOUNDARY    112   LAYER   1   ROW     8   COL     7   RATE   -100.0000    
 BOUNDARY    113   LAYER   1   ROW     8   COL     8   RATE   -100.0000    
 BOUNDARY    114   LAYER   1   ROW     8   COL     9   RATE   -100.0000    
 BOUNDARY    115   LAYER   1   ROW     8   COL    10   RATE   -100.0000    
 BOUNDARY    116   LAYER   1   ROW     8   COL    11   RATE   -100.0000    
 BOUNDARY    117   LAYER   1   ROW     8   COL    12   RATE    -27.8900    
 BOUNDARY    118   LAYER   1   ROW     8   COL    13   RATE    -3.74989    
 BOUNDARY    119   LAYER   1   ROW     8   COL    14   RATE     0.00000    
 BOUNDARY    120   LAYER   1   ROW     8   COL    15   RATE     0.00000    
 BOUNDARY    121   LAYER   1   ROW     9   COL     1   RATE    -19.6164    
 BOUNDARY    122   LAYER   1   ROW     9   COL     2   RATE    -64.5877    
 BOUNDARY    123   LAYER   1   ROW     9   COL     3   RATE   -100.0000    
 BOUNDARY    124   LAYER   1   ROW     9   COL     4   RATE   -100.0000    
 BOUNDARY    125   LAYER   1   ROW     9   COL     5   RATE   -100.0000    
 BOUNDARY    126   LAYER   1   ROW     9   COL     6   RATE   -100.0000    
 BOUNDARY    127   LAYER   1   ROW     9   COL     7   RATE   -100.0000    
 BOUNDARY    128   LAYER   1   ROW     9   COL     8   RATE   -100.0000    
 BOUNDARY    129   LAYER   1   ROW     9   COL     9   RATE   -100.0000    
 BOUNDARY    130   LAYER   1   ROW     9   COL    10   RATE   -100.0000    
 BOUNDARY    131   LAYER   1   ROW     9   COL    11   RATE   -100.0000    
 BOUNDARY    132   LAYER   1   ROW     9   COL    12   RATE    -29.0027    
 BOUNDARY    133   LAYER   1   ROW     9   COL    13   RATE    -4.59076    
 BOUNDARY    134   LAYER   1   ROW     9   COL    14   RATE     0.00000    
 BOUNDARY    135   LAYER   1   ROW     9   COL    15   RATE     0.00000    
 BOUNDARY    136   LAYER   1   ROW    10   COL     1   RATE    -72.7961    
 BOUNDARY    137   LAYER   1   ROW    10   COL     2   RATE   -100.0000    
 BOUNDARY    138   LAYER   1   ROW    10   COL     3   RATE   -100.0000    
 BOUNDARY    139   LAYER   1   ROW    10   COL     4   RATE   -100.0000    
 BOUNDARY    140   LAYER   1   ROW    10   COL     5   RATE   -100.0000    
 BOUNDARY    141   LAYER   1   ROW    10   COL     6   RATE   -100.0000    
 BOUNDARY    142   LAYER   1   ROW    10   COL     7   RATE   -100.0000    
 BOUNDARY    143   LAYER   1   ROW    10   COL     8   RATE   -100.0000    
 BOUNDARY    144   LAYER   1   ROW    10   COL     9   RATE   -100.0000    
 BOUNDARY    145   LAYER   1   ROW    10   COL    10   RATE   -100.0000    
 BOUNDARY    146   LAYER   1   ROW    10   COL    11   RATE   -100.0000    
 BOUNDARY    147   LAYER   1   ROW    10   COL    12   RATE    -29.8053    
 BOUNDARY    148   LAYER   1   ROW    10   COL    13   RATE    -5.12752    
 BOUNDARY    149   LAYER   1   ROW    10   COL    14   RATE     0.00000    
 BOUNDARY    150   LAYER   1   ROW    10   COL    15   RATE     0.00000    

 HEAD WILL BE SAVED ON UNIT 1017 AT END OF TIME STEP    3, STRESS PERIOD    4
WEL   no.    1 value from time series:   0.0000     for time:  63.00     to  64.00    
WEL   no.    2 value from time series:   0.0000     for time:  63.00     to  64.00    
RIV   no.    1 value from time series:   101.00     for time:  63.00     to  64.00    
RIV   no.    2 value from time series:   101.00     for time:  63.00     to  64.00    
RIV   no.    3 value from time series:   111.50     for time:  63.00     to  64.00    
RIV   no.    4 value from time series:   111.50     for time:  63.00     to  64.00    
RIV   no.    5 value from time series:   115.10     for time:  63.00     to  64.00    
RIV   no.    6 value from time series:   115.10     for time:  63.00     to  64.00    
RIV   no.    7 value from time series:   104.00     for time:  63.00     to  64.00    
RIV   no.    8 value from time series:   104.00     for time:  63.00     to  64.00    
RIV   no.    9 value from time series:   113.50     for time:  63.00     to  64.00    
RIV   no.   10 value from time series:   113.50     for time:  63.00     to  64.00    
WEL   no.    1 value from time series:   0.0000     for time:  63.00     to  64.00    
WEL   no.    2 value from time series:   0.0000     for time:  63.00     to  64.00    
RIV   no.    1 value from time series:   101.00     for time:  63.00     to  64.00    
RIV   no.    2 value from time series:   101.00     for time:  63.00     to  64.00    
RIV   no.    3 value from time series:   111.50     for time:  63.00     to  64.00    
RIV   no.    4 value from time series:   111.50     for time:  63.00     to  64.00    
RIV   no.    5 value from time series:   115.10     for time:  63.00     to  64.00    
RIV   no.    6 value from time series:   115.10     for time:  63.00     to  64.00    
RIV   no.    7 value from time series:   104.00     for time:  63.00     to  64.00    
RIV   no.    8 value from time series:   104.00     for time:  63.00     to  64.00    
RIV   no.    9 value from time series:   113.50     for time:  63.00     to  64.00    
RIV   no.   10 value from time series:   113.50     for time:  63.00     to  64.00    

 OUTPUT CONTROL FOR STRESS PERIOD    4   TIME STEP    4
    SAVE BUDGET
    SAVE HEAD
    SAVE HEAD FOR ALL LAYERS
 UBDSV1 SAVING          STORAGE ON UNIT   1016 AT TIME STEP      4, STRESS PERIOD      4
 UBDSV1 SAVING FLOW RIGHT FACE  ON UNIT   1016 AT TIME STEP      4, STRESS PERIOD      4
 UBDSV1 SAVING FLOW FRONT FACE  ON UNIT   1016 AT TIME STEP      4, STRESS PERIOD      4
 UBDSV1 SAVING FLOW LOWER FACE  ON UNIT   1016 AT TIME STEP      4, STRESS PERIOD      4
 UBDSV4 SAVING WELLS NEAR RIVER ON UNIT   1016 AT TIME STEP      4, STRESS PERIOD      4

 WELLS NEAR RIVER   PERIOD  4   STEP  4
 BOUNDARY      1   LAYER   2   ROW     8   COL     4   RATE     0.00000      WELL_2
 BOUNDARY      2   LAYER   2   ROW     3   COL     4   RATE     0.00000      WELL_1
 UBDSV4 SAVING RIVER            ON UNIT   1016 AT TIME STEP      4, STRESS PERIOD      4

 RIVER              PERIOD  4   STEP  4
 BOUNDARY      1   LAYER   1   ROW     1   COL    15   RATE    -4809.56    
 BOUNDARY      2   LAYER   1   ROW     2   COL    15   RATE    -5927.87      RIV2
 BOUNDARY      3   LAYER   1   ROW     3   COL    15   RATE    -2185.09      RIV3
 BOUNDARY      4   LAYER   1   ROW     4   COL    15   RATE    -3645.62    
 BOUNDARY      5   LAYER   1   ROW     5   COL    15   RATE    -2286.59    
 BOUNDARY      6   LAYER   1   ROW     6   COL    15   RATE    -1637.19    
 BOUNDARY      7   LAYER   1   ROW     7   COL    15   RATE    -6118.28      RIVX
 BOUNDARY      8   LAYER   1   ROW     8   COL    15   RATE    -5960.47      RIVX
 BOUNDARY      9   LAYER   1   ROW     9   COL    15   RATE    -2162.51      RIVX
 BOUNDARY     10   LAYER   1   ROW    10   COL    15   RATE    -3061.48    

 GHB LAKES          PERIOD  4   STEP  4
 BOUNDARY      1   LAYER   1   ROW     3   COL     1   RATE    -14554.0    
 BOUNDARY      2   LAYER   1   ROW     7   COL     1   RATE    -1905.07      GHB2_UPPER
 BOUNDARY      3   LAYER   1   ROW     7   COL     1   RATE    -13258.0      GHB2_LOWER
 UBDSV4 SAVING RECHARGE         ON UNIT   1016 AT TIME STEP      4, STRESS PERIOD      4

 RECHARGE           PERIOD  4   STEP  4
 BOUNDARY      1   LAYER   1   ROW     1   COL     1   RATE     636.667    
 BOUNDARY      2   LAYER   1   ROW     1   COL     2   RATE     636.667    
 BOUNDARY      3   LAYER   1   ROW     1   COL     3   RATE     636.667    
 BOUNDARY      4   LAYER   1   ROW     1   COL     4   RATE     636.667    
 BOUNDARY      5   LAYER   1   ROW     1   COL     5   RATE     636.667    
 BOUNDARY      6   LAYER   1   ROW     1   COL     6   RATE     636.667    
 BOUNDARY      7   LAYER   1   ROW     1   COL     7   RATE     636.667    
 BOUNDARY      8   LAYER   1   ROW     1   COL     8   RATE     636.667    
 BOUNDARY      9   LAYER   1   ROW     1   COL     9   RATE     636.667    
 BOUNDARY     10   LAYER   1   ROW     1   COL    10   RATE     636.667    
 BOUNDARY     11   LAYER   1   ROW     1   COL    11   RATE     636.667    
 BOUNDARY     12   LAYER   1   ROW     1   COL    12   RATE     636.667    
 BOUNDARY     13   LAYER   1   ROW     1   COL    13   RATE     636.667    
 BOUNDARY     14   LAYER   1   ROW     1   COL    14   RATE     636.667    
 BOUNDARY     15   LAYER   1   ROW     1   COL    15   RATE     636.667    
 BOUNDARY     16   LAYER   1   ROW     2   COL     1   RATE     636.667    
 BOUNDARY     17   LAYER   1   ROW     2   COL     2   RATE     636.667    
 BOUNDARY     18   LAYER   1   ROW     2   COL     3   RATE     636.667    
 BOUNDARY     19   LAYER   1   ROW     2   COL     4   RATE     636.667    
 BOUNDARY     20   LAYER   1   ROW     2   COL     5   RATE     636.667    
 BOUNDARY     21   LAYER   1   ROW     2   COL     6   RATE     636.667    
 BOUNDARY     22   LAYER   1   ROW     2   COL     7   RATE     636.667    
 BOUNDARY     23   LAYER   1   ROW     2   COL     8   RATE     636.667    
 BOUNDARY     24   LAYER   1   ROW     2   COL     9   RATE     636.667    
 BOUNDARY     25   LAYER   1   ROW     2   COL    10   RATE     636.667    
 BOUNDARY     26   LAYER   1   ROW     2   COL    11   RATE     636.667    
 BOUNDARY     27   LAYER   1   ROW     2   COL    12   RATE     636.667    
 BOUNDARY     28   LAYER   1   ROW     2   COL    13   RATE     636.667    
 BOUNDARY     29   LAYER   1   ROW     2   COL    14   RATE     636.667    
 BOUNDARY     30   LAYER   1   ROW     2   COL    15   RATE     636.667    
 BOUNDARY     31   LAYER   1   ROW     3   COL     1   RATE     636.667    
 BOUNDARY     32   LAYER   1   ROW     3   COL     2   RATE     636.667    
 BOUNDARY     33   LAYER   1   ROW     3   COL     3   RATE     636.667    
 BOUNDARY     34   LAYER   1   ROW     3   COL     4   RATE     636.667    
 BOUNDARY     35   LAYER   1   ROW     3   COL     5   RATE     636.667    
 BOUNDARY     36   LAYER   1   ROW     3   COL     6   RATE     636.667    
 BOUNDARY     37   LAYER   1   ROW     3   COL     7   RATE     636.667    
 BOUNDARY     38   LAYER   1   ROW     3   COL     8   RATE     636.667    
 BOUNDARY     39   LAYER   1   ROW     3   COL     9   RATE     636.667    
 BOUNDARY     40   LAYER   1   ROW     3   COL    10   RATE     636.667    
 BOUNDARY     41   LAYER   1   ROW     3   COL    11   RATE     636.667    
 BOUNDARY     42   LAYER   1   ROW     3   COL    12   RATE     636.667    
 BOUNDARY     43   LAYER   1   ROW     3   COL    13   RATE     636.667    
 BOUNDARY     44   LAYER   1   ROW     3   COL    14   RATE     636.667    
 BOUNDARY     45   LAYER   1   ROW     3   COL    15   RATE     636.667    
 BOUNDARY     46   LAYER   1   ROW     4   COL     1   RATE     636.667    
 BOUNDARY     47   LAYER   1   ROW     4   COL     2   RATE     636.667    
 BOUNDARY     48   LAYER   1   ROW     4   COL     3   RATE     636.667    
 BOUNDARY     49   LAYER   1   ROW     4   COL     4   RATE     636.667    
 BOUNDARY     50   LAYER   1   ROW     4   COL     5   RATE     636.667    
 BOUNDARY     51   LAYER   1   ROW     4   COL     6   RATE     636.667    
 BOUNDARY     52   LAYER   1   ROW     4   COL     7   RATE     636.667    
 BOUNDARY     53   LAYER   1   ROW     4   COL     8   RATE     636.667    
 BOUNDARY     54   LAYER   1   ROW     4   COL     9   RATE     636.667    
 BOUNDARY     55   LAYER   1   ROW     4   COL    10   RATE     636.667    
 BOUNDARY     56   LAYER   1   ROW     4   COL    11   RATE     636.667    
 BOUNDARY     57   LAYER   1   ROW     4   COL    12   RATE     636.667    
 BOUNDARY     58   LAYER   1   ROW     4   COL    13   RATE     636.667    
 BOUNDARY     59   LAYER   1   ROW     4   COL    14   RATE     636.667    
 BOUNDARY     60   LAYER   1   ROW     4   COL    15   RATE     636.667    
 BOUNDARY     61   LAYER   1   ROW     5   COL     1   RATE     636.667    
 BOUNDARY     62   LAYER   1   ROW     5   COL     2   RATE     636.667    
 BOUNDARY     63   LAYER   1   ROW     5   COL     3   RATE     636.667    
 BOUNDARY     64   LAYER   1   ROW     5   COL     4   RATE     636.667    
 BOUNDARY     65   LAYER   1   ROW     5   COL     5   RATE     636.667    
 BOUNDARY     66   LAYER   1   ROW     5   COL     6   RATE     636.667    
 BOUNDARY     67   LAYER   1   ROW     5   COL     7   RATE     636.667    
 BOUNDARY     68   LAYER   1   ROW     5   COL     8   RATE     636.667    
 BOUNDARY     69   LAYER   1   ROW     5   COL     9   RATE     636.667    
 BOUNDARY     70   LAYER   1   ROW     5   COL    10   RATE     636.667    
 BOUNDARY     71   LAYER   1   ROW     5   COL    11   RATE     636.667    
 BOUNDARY     72   LAYER   1   ROW     5   COL    12   RATE     636.667    
 BOUNDARY     73   LAYER   1   ROW     5   COL    13   RATE     636.667    
 BOUNDARY     74   LAYER   1   ROW     5   COL    14   RATE     636.667    
 BOUNDARY     75   LAYER   1   ROW     5   COL    15   RATE     636.667    
 BOUNDARY     76   LAYER   1   ROW     6   COL     1   RATE     636.667    
 BOUNDARY     77   LAYER   1   ROW     6   COL     2   RATE     636.667    
 BOUNDARY     78   LAYER   1   ROW     6   COL     3   RATE     636.667    
 BOUNDARY     79   LAYER   1   ROW     6   COL     4   RATE     636.667    
 BOUNDARY     80   LAYER   1   ROW     6   COL     5   RATE     636.667    
 BOUNDARY     81   LAYER   1   ROW     6   COL     6   RATE     636.667    
 BOUNDARY     82   LAYER   1   ROW     6   COL     7   RATE     636.667    
 BOUNDARY     83   LAYER   1   ROW     6   COL     8   RATE     636.667    
 BOUNDARY     84   LAYER   1   ROW     6   COL     9   RATE     636.667    
 BOUNDARY     85   LAYER   1   ROW     6   COL    10   RATE     636.667    
 BOUNDARY     86   LAYER   1   ROW     6   COL    11   RATE     636.667    
 BOUNDARY     87   LAYER   1   ROW     6   COL    12   RATE     636.667    
 BOUNDARY     88   LAYER   1   ROW     6   COL    13   RATE     636.667    
 BOUNDARY     89   LAYER   1   ROW     6   COL    14   RATE     636.667    
 BOUNDARY     90   LAYER   1   ROW     6   COL    15   RATE     636.667    
 BOUNDARY     91   LAYER   1   ROW     7   COL     1   RATE     636.667    
 BOUNDARY     92   LAYER   1   ROW     7   COL     2   RATE     636.667    
 BOUNDARY     93   LAYER   1   ROW     7   COL     3   RATE     636.667    
 BOUNDARY     94   LAYER   1   ROW     7   COL     4   RATE     636.667    
 BOUNDARY     95   LAYER   1   ROW     7   COL     5   RATE     636.667    
 BOUNDARY     96   LAYER   1   ROW     7   COL     6   RATE     636.667    
 BOUNDARY     97   LAYER   1   ROW     7   COL     7   RATE     636.667    
 BOUNDARY     98   LAYER   1   ROW     7   COL     8   RATE     636.667    
 BOUNDARY     99   LAYER   1   ROW     7   COL     9   RATE     636.667    
 BOUNDARY    100   LAYER   1   ROW     7   COL    10   RATE     636.667    
 BOUNDARY    101   LAYER   1   ROW     7   COL    11   RATE     636.667    
 BOUNDARY    102   LAYER   1   ROW     7   COL    12   RATE     636.667    
 BOUNDARY    103   LAYER   1   ROW     7   COL    13   RATE     636.667    
 BOUNDARY    104   LAYER   1   ROW     7   COL    14   RATE     636.667    
 BOUNDARY    105   LAYER   1   ROW     7   COL    15   RATE     636.667    
 BOUNDARY    106   LAYER   1   ROW     8   COL     1   RATE     636.667    
 BOUNDARY    107   LAYER   1   ROW     8   COL     2   RATE     636.667    
 BOUNDARY    108   LAYER   1   ROW     8   COL     3   RATE     636.667    
 BOUNDARY    109   LAYER   1   ROW     8   COL     4   RATE     636.667    
 BOUNDARY    110   LAYER   1   ROW     8   COL     5   RATE     636.667    
 BOUNDARY    111   LAYER   1   ROW     8   COL     6   RATE     636.667    
 BOUNDARY    112   LAYER   1   ROW     8   COL     7   RATE     636.667    
 BOUNDARY    113   LAYER   1   ROW     8   COL     8   RATE     636.667    
 BOUNDARY    114   LAYER   1   ROW     8   COL     9   RATE     636.667    
 BOUNDARY    115   LAYER   1   ROW     8   COL    10   RATE     636.667    
 BOUNDARY    116   LAYER   1   ROW     8   COL    11   RATE     636.667    
 BOUNDARY    117   LAYER   1   ROW     8   COL    12   RATE     636.667    
 BOUNDARY    118   LAYER   1   ROW     8   COL    13   RATE     636.667    
 BOUNDARY    119   LAYER   1   ROW     8   COL    14   RATE     636.667    
 BOUNDARY    120   LAYER   1   ROW     8   COL    15   RATE     636.667    
 BOUNDARY    121   LAYER   1   ROW     9   COL     1   RATE     636.667    
 BOUNDARY    122   LAYER   1   ROW     9   COL     2   RATE     636.667    
 BOUNDARY    123   LAYER   1   ROW     9   COL     3   RATE     636.667    
 BOUNDARY    124   LAYER   1   ROW     9   COL     4   RATE     636.667    
 BOUNDARY    125   LAYER   1   ROW     9   COL     5   RATE     636.667    
 BOUNDARY    126   LAYER   1   ROW     9   COL     6   RATE     636.667    
 BOUNDARY    127   LAYER   1   ROW     9   COL     7   RATE     636.667    
 BOUNDARY    128   LAYER   1   ROW     9   COL     8   RATE     636.667    
 BOUNDARY    129   LAYER   1   ROW     9   COL     9   RATE     636.667    
 BOUNDARY    130   LAYER   1   ROW     9   COL    10   RATE     636.667    
 BOUNDARY    131   LAYER   1   ROW     9   COL    11   RATE     636.667    
 BOUNDARY    132   LAYER   1   ROW     9   COL    12   RATE     636.667    
 BOUNDARY    133   LAYER   1   ROW     9   COL    13   RATE     636.667    
 BOUNDARY    134   LAYER   1   ROW     9   COL    14   RATE     636.667    
 BOUNDARY    135   LAYER   1   ROW     9   COL    15   RATE     636.667    
 BOUNDARY    136   LAYER   1   ROW    10   COL     1   RATE     636.667    
 BOUNDARY    137   LAYER   1   ROW    10   COL     2   RATE     636.667    
 BOUNDARY    138   LAYER   1   ROW    10   COL     3   RATE     636.667    
 BOUNDARY    139   LAYER   1   ROW    10   COL     4   RATE     636.667    
 BOUNDARY    140   LAYER   1   ROW    10   COL     5   RATE     636.667    
 BOUNDARY    141   LAYER   1   ROW    10   COL     6   RATE     636.667    
 BOUNDARY    142   LAYER   1   ROW    10   COL     7   RATE     636.667    
 BOUNDARY    143   LAYER   1   ROW    10   COL     8   RATE     636.667    
 BOUNDARY    144   LAYER   1   ROW    10   COL     9   RATE     636.667    
 BOUNDARY    145   LAYER   1   ROW    10   COL    10   RATE     636.667    
 BOUNDARY    146   LAYER   1   ROW    10   COL    11   RATE     636.667    
 BOUNDARY    147   LAYER   1   ROW    10   COL    12   RATE     636.667    
 BOUNDARY    148   LAYER   1   ROW    10   COL    13   RATE     636.667    
 BOUNDARY    149   LAYER   1   ROW    10   COL    14   RATE     636.667    
 BOUNDARY    150   LAYER   1   ROW    10   COL    15   RATE     636.667    
 UBDSV4 SAVING ET SEGS          ON UNIT   1016 AT TIME STEP      4, STRESS PERIOD      4

 ET SEGS            PERIOD  4   STEP  4
 BOUNDARY      1   LAYER   1   ROW     1   COL     1   RATE    -2.39258    
 BOUNDARY      2   LAYER   1   ROW     1   COL     2   RATE    -9.24466    
 BOUNDARY      3   LAYER   1   ROW     1   COL     3   RATE    -53.1630    
 BOUNDARY      4   LAYER   1   ROW     1   COL     4   RATE   -100.0000    
 BOUNDARY      5   LAYER   1   ROW     1   COL     5   RATE   -100.0000    
 BOUNDARY      6   LAYER   1   ROW     1   COL     6   RATE   -100.0000    
 BOUNDARY      7   LAYER   1   ROW     1   COL     7   RATE   -100.0000    
 BOUNDARY      8   LAYER   1   ROW     1   COL     8   RATE   -100.0000    
 BOUNDARY      9   LAYER   1   ROW     1   COL     9   RATE   -100.0000    
 BOUNDARY     10   LAYER   1   ROW     1   COL    10   RATE   -100.0000    
 BOUNDARY     11   LAYER   1   ROW     1   COL    11   RATE   -100.0000    
 BOUNDARY     12   LAYER   1   ROW     1   COL    12   RATE    -17.6393    
 BOUNDARY     13   LAYER   1   ROW     1   COL    13   RATE     0.00000    
 BOUNDARY     14   LAYER   1   ROW     1   COL    14   RATE     0.00000    
 BOUNDARY     15   LAYER   1   ROW     1   COL    15   RATE     0.00000    
 BOUNDARY     16   LAYER   1   ROW     2   COL     1   RATE     0.00000    
 BOUNDARY     17   LAYER   1   ROW     2   COL     2   RATE    -4.71797    
 BOUNDARY     18   LAYER   1   ROW     2   COL     3   RATE    -28.9237    
 BOUNDARY     19   LAYER   1   ROW     2   COL     4   RATE   -100.0000    
 BOUNDARY     20   LAYER   1   ROW     2   COL     5   RATE   -100.0000    
 BOUNDARY     21   LAYER   1   ROW     2   COL     6   RATE   -100.0000    
 BOUNDARY     22   LAYER   1   ROW     2   COL     7   RATE   -100.0000    
 BOUNDARY     23   LAYER   1   ROW     2   COL     8   RATE   -100.0000    
 BOUNDARY     24   LAYER   1   ROW     2   COL     9   RATE   -100.0000    
 BOUNDARY     25   LAYER   1   ROW     2   COL    10   RATE   -100.0000    
 BOUNDARY     26   LAYER   1   ROW     2   COL    11   RATE   -100.0000    
 BOUNDARY     27   LAYER   1   ROW     2   COL    12   RATE    -19.3793    
 BOUNDARY     28   LAYER   1   ROW     2   COL    13   RATE   -0.371893    
 BOUNDARY     29   LAYER   1   ROW     2   COL    14   RATE     0.00000    
 BOUNDARY     30   LAYER   1   ROW     2   COL    15   RATE     0.00000    
 BOUNDARY     31   LAYER   1   ROW     3   COL     1   RATE     0.00000    
 BOUNDARY     32   LAYER   1   ROW     3   COL     2   RATE     0.00000    
 BOUNDARY     33   LAYER   1   ROW     3   COL     3   RATE    -23.0611    
 BOUNDARY     34   LAYER   1   ROW     3   COL     4   RATE   -100.0000    
 BOUNDARY     35   LAYER   1   ROW     3   COL     5   RATE   -100.0000    
 BOUNDARY     36   LAYER   1   ROW     3   COL     6   RATE   -100.0000    
 BOUNDARY     37   LAYER   1   ROW     3   COL     7   RATE   -100.0000    
 BOUNDARY     38   LAYER   1   ROW     3   COL     8   RATE   -100.0000    
 BOUNDARY     39   LAYER   1   ROW     3   COL     9   RATE   -100.0000    
 BOUNDARY     40   LAYER   1   ROW     3   COL    10   RATE   -100.0000    
 BOUNDARY     41   LAYER   1   ROW     3   COL    11   RATE   -100.0000    
 BOUNDARY     42   LAYER   1   ROW     3   COL    12   RATE    -22.3142    
 BOUNDARY     43   LAYER   1   ROW     3   COL    13   RATE    -2.16293    
 BOUNDARY     44   LAYER   1   ROW     3   COL    14   RATE     0.00000    
 BOUNDARY     45   LAYER   1   ROW     3   COL    15   RATE     0.00000    
 BOUNDARY     46   LAYER   1   ROW     4   COL     1   RATE     0.00000    
 BOUNDARY     47   LAYER   1   ROW     4   COL     2   RATE    -3.21370    
 BOUNDARY     48   LAYER   1   ROW     4   COL     3   RATE    -26.9601    
 BOUNDARY     49   LAYER   1   ROW     4   COL     4   RATE   -100.0000    
 BOUNDARY     50   LAYER   1   ROW     4   COL     5   RATE   -100.0000    
 BOUNDARY     51   LAYER   1   ROW     4   COL     6   RATE   -100.0000    
 BOUNDARY     52   LAYER   1   ROW     4   COL     7   RATE   -100.0000    
 BOUNDARY     53   LAYER   1   ROW     4   COL     8   RATE   -100.0000    
 BOUNDARY     54   LAYER   1   ROW     4   COL     9   RATE   -100.0000    
 BOUNDARY     55   LAYER   1   ROW     4   COL    10   RATE   -100.0000    
 BOUNDARY     56   LAYER   1   ROW     4   COL    11   RATE   -100.0000    
 BOUNDARY     57   LAYER   1   ROW     4   COL    12   RATE    -25.1083    
 BOUNDARY     58   LAYER   1   ROW     4   COL    13   RATE    -3.61897    
 BOUNDARY     59   LAYER   1   ROW     4   COL    14   RATE     0.00000    
 BOUNDARY     60   LAYER   1   ROW     4   COL    15   RATE     0.00000    
 BOUNDARY     61   LAYER   1   ROW     5   COL     1   RATE     0.00000    
 BOUNDARY     62   LAYER   1   ROW     5   COL     2   RATE    -6.18998    
 BOUNDARY     63   LAYER   1   ROW     5   COL     3   RATE    -34.9466    
 BOUNDARY     64   LAYER   1   ROW     5   COL     4   RATE   -100.0000    
 BOUNDARY     65   LAYER   1   ROW     5   COL     5   RATE   -100.0000    
 BOUNDARY     66   LAYER   1   ROW     5   COL     6   RATE   -100.0000    
 BOUNDARY     67   LAYER   1   ROW     5   COL     7   RATE   -100.0000    
 BOUNDARY     68   LAYER   1   ROW     5   COL     8   RATE   -100.0000    
 BOUNDARY     69   LAYER   1   ROW     5   COL     9   RATE   -100.0000    
 BOUNDARY     70   LAYER   1   ROW     5   COL    10   RATE   -100.0000    
 BOUNDARY     71   LAYER   1   ROW     5   COL    11   RATE   -100.0000    
 BOUNDARY     72   LAYER   1   ROW     5   COL    12   RATE    -27.0351    
 BOUNDARY     73   LAYER   1   ROW     5   COL    13   RATE    -4.51255    
 BOUNDARY     74   LAYER   1   ROW     5   COL    14   RATE     0.00000    
 BOUNDARY     75   LAYER   1   ROW     5   COL    15   RATE     0.00000    
 BOUNDARY     76   LAYER   1   ROW     6   COL     1   RATE     0.00000    
 BOUNDARY     77   LAYER   1   ROW     6   COL     2   RATE    -4.75534    
 BOUNDARY     78   LAYER   1   ROW     6   COL     3   RATE    -38.7788    
 BOUNDARY     79   LAYER   1   ROW     6   COL     4   RATE   -100.0000    
 BOUNDARY     80   LAYER   1   ROW     6   COL     5   RATE   -100.0000    
 BOUNDARY     81   LAYER   1   ROW     6   COL     6   RATE   -100.0000    
 BOUNDARY     82   LAYER   1   ROW     6   COL     7   RATE   -100.0000    
 BOUNDARY     83   LAYER   1   ROW     6   COL     8   RATE   -100.0000    
 BOUNDARY     84   LAYER   1   ROW     6   COL     9   RATE   -100.0000    
 BOUNDARY     85   LAYER   1   ROW     6   COL    10   RATE   -100.0000    
 BOUNDARY     86   LAYER   1   ROW     6   COL    11   RATE   -100.0000    
 BOUNDARY     87   LAYER   1   ROW     6   COL    12   RATE    -27.6819    
 BOUNDARY     88   LAYER   1   ROW     6   COL    13   RATE    -4.46748    
 BOUNDARY     89   LAYER   1   ROW     6   COL    14   RATE     0.00000    
 BOUNDARY     90   LAYER   1   ROW     6   COL    15   RATE     0.00000    
 BOUNDARY     91   LAYER   1   ROW     7   COL     1   RATE     0.00000    
 BOUNDARY     92   LAYER   1   ROW     7   COL     2   RATE    -1.24280    
 BOUNDARY     93   LAYER   1   ROW     7   COL     3   RATE    -45.6280    
 BOUNDARY     94   LAYER   1   ROW     7   COL     4   RATE   -100.0000    
 BOUNDARY     95   LAYER   1   ROW     7   COL     5   RATE   -100.0000    
 BOUNDARY     96   LAYER   1   ROW     7   COL     6   RATE   -100.0000    
 BOUNDARY     97   LAYER   1   ROW     7   COL     7   RATE   -100.0000    
 BOUNDARY     98   LAYER   1   ROW     7   COL     8   RATE   -100.0000    
 BOUNDARY     99   LAYER   1   ROW     7   COL     9   RATE   -100.0000    
 BOUNDARY    100   LAYER   1   ROW     7   COL    10   RATE   -100.0000    
 BOUNDARY    101   LAYER   1   ROW     7   COL    11   RATE   -100.0000    
 BOUNDARY    102   LAYER   1   ROW     7   COL    12   RATE    -27.5272    
 BOUNDARY    103   LAYER   1   ROW     7   COL    13   RATE    -3.74371    
 BOUNDARY    104   LAYER   1   ROW     7   COL    14   RATE     0.00000    
 BOUNDARY    105   LAYER   1   ROW     7   COL    15   RATE     0.00000    
 BOUNDARY    106   LAYER   1   ROW     8   COL     1   RATE     0.00000    
 BOUNDARY    107   LAYER   1   ROW     8   COL     2   RATE    -12.0633    
 BOUNDARY    108   LAYER   1   ROW     8   COL     3   RATE   -100.0000    
 BOUNDARY    109   LAYER   1   ROW     8   COL     4   RATE   -100.0000    
 BOUNDARY    110   LAYER   1   ROW     8   COL     5   RATE   -100.0000    
 BOUNDARY    111   LAYER   1   ROW     8   COL     6   RATE   -100.0000    
 BOUNDARY    112   LAYER   1   ROW     8   COL     7   RATE   -100.0000    
 BOUNDARY    113   LAYER   1   ROW     8   COL     8   RATE   -100.0000    
 BOUNDARY    114   LAYER   1   ROW     8   COL     9   RATE   -100.0000    
 BOUNDARY    115   LAYER   1   ROW     8   COL    10   RATE   -100.0000    
 BOUNDARY    116   LAYER   1   ROW     8   COL    11   RATE   -100.0000    
 BOUNDARY    117   LAYER   1   ROW     8   COL    12   RATE    -27.9264    
 BOUNDARY    118   LAYER   1   ROW     8   COL    13   RATE    -3.76093    
 BOUNDARY    119   LAYER   1   ROW     8   COL    14   RATE     0.00000    
 BOUNDARY    120   LAYER   1   ROW     8   COL    15   RATE     0.00000    
 BOUNDARY    121   LAYER   1   ROW     9   COL     1   RATE    -19.6508    
 BOUNDARY    122   LAYER   1   ROW     9   COL     2   RATE    -64.7693    
 BOUNDARY    123   LAYER   1   ROW     9   COL     3   RATE   -100.0000    
 BOUNDARY    124   LAYER   1   ROW     9   COL     4   RATE   -100.0000    
 BOUNDARY    125   LAYER   1   ROW     9   COL     5   RATE   -100.0000    
 BOUNDARY    126   LAYER   1   ROW     9   COL     6   RATE   -100.0000    
 BOUNDARY    127   LAYER   1   ROW     9   COL     7   RATE   -100.0000    
 BOUNDARY    128   LAYER   1   ROW     9   COL     8   RATE   -100.0000    
 BOUNDARY    129   LAYER   1   ROW     9   COL     9   RATE   -100.0000    
 BOUNDARY    130   LAYER   1   ROW     9   COL    10   RATE   -100.0000    
 BOUNDARY    131   LAYER   1   ROW     9   COL    11   RATE   -100.0000    
 BOUNDARY    132   LAYER   1   ROW     9   COL    12   RATE    -29.0398    
 BOUNDARY    133   LAYER   1   ROW     9   COL    13   RATE    -4.60244    
 BOUNDARY    134   LAYER   1   ROW     9   COL    14   RATE     0.00000    
 BOUNDARY    135   LAYER   1   ROW     9   COL    15   RATE     0.00000    
 BOUNDARY    136   LAYER   1   ROW    10   COL     1   RATE    -72.9773    
 BOUNDARY    137   LAYER   1   ROW    10   COL     2   RATE   -100.0000    
 BOUNDARY    138   LAYER   1   ROW    10   COL     3   RATE   -100.0000    
 BOUNDARY    139   LAYER   1   ROW    10   COL     4   RATE   -100.0000    
 BOUNDARY    140   LAYER   1   ROW    10   COL     5   RATE   -100.0000    
 BOUNDARY    141   LAYER   1   ROW    10   COL     6   RATE   -100.0000    
 BOUNDARY    142   LAYER   1   ROW    10   COL     7   RATE   -100.0000    
 BOUNDARY    143   LAYER   1   ROW    10   COL     8   RATE   -100.0000    
 BOUNDARY    144   LAYER   1   ROW    10   COL     9   RATE   -100.0000    
 BOUNDARY    145   LAYER   1   ROW    10   COL    10   RATE   -100.0000    
 BOUNDARY    146   LAYER   1   ROW    10   COL    11   RATE   -100.0000    
 BOUNDARY    147   LAYER   1   ROW    10   COL    12   RATE    -29.8428    
 BOUNDARY    148   LAYER   1   ROW    10   COL    13   RATE    -5.13955    
 BOUNDARY    149   LAYER   1   ROW    10   COL    14   RATE     0.00000    
 BOUNDARY    150   LAYER   1   ROW    10   COL    15   RATE     0.00000    

 HEAD WILL BE SAVED ON UNIT 1017 AT END OF TIME STEP    4, STRESS PERIOD    4
WEL   no.    1 value from time series:   0.0000     for time:  64.00     to  65.00    
WEL   no.    2 value from time series:   0.0000     for time:  64.00     to  65.00    
RIV   no.    1 value from time series:   101.00     for time:  64.00     to  65.00    
RIV   no.    2 value from time series:   101.00     for time:  64.00     to  65.00    
RIV   no.    3 value from time series:   111.50     for time:  64.00     to  65.00    
RIV   no.    4 value from time series:   111.50     for time:  64.00     to  65.00    
RIV   no.    5 value from time series:   115.10     for time:  64.00     to  65.00    
RIV   no.    6 value from time series:   115.10     for time:  64.00     to  65.00    
RIV   no.    7 value from time series:   104.00     for time:  64.00     to  65.00    
RIV   no.    8 value from time series:   104.00     for time:  64.00     to  65.00    
RIV   no.    9 value from time series:   113.50     for time:  64.00     to  65.00    
RIV   no.   10 value from time series:   113.50     for time:  64.00     to  65.00    
WEL   no.    1 value from time series:   0.0000     for time:  64.00     to  65.00    
WEL   no.    2 value from time series:   0.0000     for time:  64.00     to  65.00    
RIV   no.    1 value from time series:   101.00     for time:  64.00     to  65.00    
RIV   no.    2 value from time series:   101.00     for time:  64.00     to  65.00    
RIV   no.    3 value from time series:   111.50     for time:  64.00     to  65.00    
RIV   no.    4 value from time series:   111.50     for time:  64.00     to  65.00    
RIV   no.    5 value from time series:   115.10     for time:  64.00     to  65.00    
RIV   no.    6 value from time series:   115.10     for time:  64.00     to  65.00    
RIV   no.    7 value from time series:   104.00     for time:  64.00     to  65.00    
RIV   no.    8 value from time series:   104.00     for time:  64.00     to  65.00    
RIV   no.    9 value from time series:   113.50     for time:  64.00     to  65.00    
RIV   no.   10 value from time series:   113.50     for time:  64.00     to  65.00    

 OUTPUT CONTROL FOR STRESS PERIOD    4   TIME STEP    5
    SAVE BUDGET
    SAVE HEAD
    SAVE HEAD FOR ALL LAYERS
 UBDSV1 SAVING          STORAGE ON UNIT   1016 AT TIME STEP      5, STRESS PERIOD      4
 UBDSV1 SAVING FLOW RIGHT FACE  ON UNIT   1016 AT TIME STEP      5, STRESS PERIOD      4
 UBDSV1 SAVING FLOW FRONT FACE  ON UNIT   1016 AT TIME STEP      5, STRESS PERIOD      4
 UBDSV1 SAVING FLOW LOWER FACE  ON UNIT   1016 AT TIME STEP      5, STRESS PERIOD      4
 UBDSV4 SAVING WELLS NEAR RIVER ON UNIT   1016 AT TIME STEP      5, STRESS PERIOD      4

 WELLS NEAR RIVER   PERIOD  4   STEP  5
 BOUNDARY      1   LAYER   2   ROW     8   COL     4   RATE     0.00000      WELL_2
 BOUNDARY      2   LAYER   2   ROW     3   COL     4   RATE     0.00000      WELL_1
 UBDSV4 SAVING RIVER            ON UNIT   1016 AT TIME STEP      5, STRESS PERIOD      4

 RIVER              PERIOD  4   STEP  5
 BOUNDARY      1   LAYER   1   ROW     1   COL    15   RATE    -4810.31    
 BOUNDARY      2   LAYER   1   ROW     2   COL    15   RATE    -5928.91      RIV2
 BOUNDARY      3   LAYER   1   ROW     3   COL    15   RATE    -2186.77      RIV3
 BOUNDARY      4   LAYER   1   ROW     4   COL    15   RATE    -3647.42    
 BOUNDARY      5   LAYER   1   ROW     5   COL    15   RATE    -2288.27    
 BOUNDARY      6   LAYER   1   ROW     6   COL    15   RATE    -1638.74    
 BOUNDARY      7   LAYER   1   ROW     7   COL    15   RATE    -6119.73      RIVX
 BOUNDARY      8   LAYER   1   ROW     8   COL    15   RATE    -5962.18      RIVX
 BOUNDARY      9   LAYER   1   ROW     9   COL    15   RATE    -2164.70      RIVX
 BOUNDARY     10   LAYER   1   ROW    10   COL    15   RATE    -3063.93    

 GHB LAKES          PERIOD  4   STEP  5
 BOUNDARY      1   LAYER   1   ROW     3   COL     1   RATE    -14558.2    
 BOUNDARY      2   LAYER   1   ROW     7   COL     1   RATE    -1908.36      GHB2_UPPER
 BOUNDARY      3   LAYER   1   ROW     7   COL     1   RATE    -13259.2      GHB2_LOWER
 UBDSV4 SAVING RECHARGE         ON UNIT   1016 AT TIME STEP      5, STRESS PERIOD      4

 RECHARGE           PERIOD  4   STEP  5
 BOUNDARY      1   LAYER   1   ROW     1   COL     1   RATE     640.000    
 BOUNDARY      2   LAYER   1   ROW     1   COL     2   RATE     640.000    
 BOUNDARY      3   LAYER   1   ROW     1   COL     3   RATE     640.000    
 BOUNDARY      4   LAYER   1   ROW     1   COL     4   RATE     640.000    
 BOUNDARY      5   LAYER   1   ROW     1   COL     5   RATE     640.000    
 BOUNDARY      6   LAYER   1   ROW     1   COL     6   RATE     640.000    
 BOUNDARY      7   LAYER   1   ROW     1   COL     7   RATE     640.000    
 BOUNDARY      8   LAYER   1   ROW     1   COL     8   RATE     640.000    
 BOUNDARY      9   LAYER   1   ROW     1   COL     9   RATE     640.000    
 BOUNDARY     10   LAYER   1   ROW     1   COL    10   RATE     640.000    
 BOUNDARY     11   LAYER   1   ROW     1   COL    11   RATE     640.000    
 BOUNDARY     12   LAYER   1   ROW     1   COL    12   RATE     640.000    
 BOUNDARY     13   LAYER   1   ROW     1   COL    13   RATE     640.000    
 BOUNDARY     14   LAYER   1   ROW     1   COL    14   RATE     640.000    
 BOUNDARY     15   LAYER   1   ROW     1   COL    15   RATE     640.000    
 BOUNDARY     16   LAYER   1   ROW     2   COL     1   RATE     640.000    
 BOUNDARY     17   LAYER   1   ROW     2   COL     2   RATE     640.000    
 BOUNDARY     18   LAYER   1   ROW     2   COL     3   RATE     640.000    
 BOUNDARY     19   LAYER   1   ROW     2   COL     4   RATE     640.000    
 BOUNDARY     20   LAYER   1   ROW     2   COL     5   RATE     640.000    
 BOUNDARY     21   LAYER   1   ROW     2   COL     6   RATE     640.000    
 BOUNDARY     22   LAYER   1   ROW     2   COL     7   RATE     640.000    
 BOUNDARY     23   LAYER   1   ROW     2   COL     8   RATE     640.000    
 BOUNDARY     24   LAYER   1   ROW     2   COL     9   RATE     640.000    
 BOUNDARY     25   LAYER   1   ROW     2   COL    10   RATE     640.000    
 BOUNDARY     26   LAYER   1   ROW     2   COL    11   RATE     640.000    
 BOUNDARY     27   LAYER   1   ROW     2   COL    12   RATE     640.000    
 BOUNDARY     28   LAYER   1   ROW     2   COL    13   RATE     640.000    
 BOUNDARY     29   LAYER   1   ROW     2   COL    14   RATE     640.000    
 BOUNDARY     30   LAYER   1   ROW     2   COL    15   RATE     640.000    
 BOUNDARY     31   LAYER   1   ROW     3   COL     1   RATE     640.000    
 BOUNDARY     32   LAYER   1   ROW     3   COL     2   RATE     640.000    
 BOUNDARY     33   LAYER   1   ROW     3   COL     3   RATE     640.000    
 BOUNDARY     34   LAYER   1   ROW     3   COL     4   RATE     640.000    
 BOUNDARY     35   LAYER   1   ROW     3   COL     5   RATE     640.000    
 BOUNDARY     36   LAYER   1   ROW     3   COL     6   RATE     640.000    
 BOUNDARY     37   LAYER   1   ROW     3   COL     7   RATE     640.000    
 BOUNDARY     38   LAYER   1   ROW     3   COL     8   RATE     640.000    
 BOUNDARY     39   LAYER   1   ROW     3   COL     9   RATE     640.000    
 BOUNDARY     40   LAYER   1   ROW     3   COL    10   RATE     640.000    
 BOUNDARY     41   LAYER   1   ROW     3   COL    11   RATE     640.000    
 BOUNDARY     42   LAYER   1   ROW     3   COL    12   RATE     640.000    
 BOUNDARY     43   LAYER   1   ROW     3   COL    13   RATE     640.000    
 BOUNDARY     44   LAYER   1   ROW     3   COL    14   RATE     640.000    
 BOUNDARY     45   LAYER   1   ROW     3   COL    15   RATE     640.000    
 BOUNDARY     46   LAYER   1   ROW     4   COL     1   RATE     640.000    
 BOUNDARY     47   LAYER   1   ROW     4   COL     2   RATE     640.000    
 BOUNDARY     48   LAYER   1   ROW     4   COL     3   RATE     640.000    
 BOUNDARY     49   LAYER   1   ROW     4   COL     4   RATE     640.000    
 BOUNDARY     50   LAYER   1   ROW     4   COL     5   RATE     640.000    
 BOUNDARY     51   LAYER   1   ROW     4   COL     6   RATE     640.000    
 BOUNDARY     52   LAYER   1   ROW     4   COL     7   RATE     640.000    
 BOUNDARY     53   LAYER   1   ROW     4   COL     8   RATE     640.000    
 BOUNDARY     54   LAYER   1   ROW     4   COL     9   RATE     640.000    
 BOUNDARY     55   LAYER   1   ROW     4   COL    10   RATE     640.000    
 BOUNDARY     56   LAYER   1   ROW     4   COL    11   RATE     640.000    
 BOUNDARY     57   LAYER   1   ROW     4   COL    12   RATE     640.000    
 BOUNDARY     58   LAYER   1   ROW     4   COL    13   RATE     640.000    
 BOUNDARY     59   LAYER   1   ROW     4   COL    14   RATE     640.000    
 BOUNDARY     60   LAYER   1   ROW     4   COL    15   RATE     640.000    
 BOUNDARY     61   LAYER   1   ROW     5   COL     1   RATE     640.000    
 BOUNDARY     62   LAYER   1   ROW     5   COL     2   RATE     640.000    
 BOUNDARY     63   LAYER   1   ROW     5   COL     3   RATE     640.000    
 BOUNDARY     64   LAYER   1   ROW     5   COL     4   RATE     640.000    
 BOUNDARY     65   LAYER   1   ROW     5   COL     5   RATE     640.000    
 BOUNDARY     66   LAYER   1   ROW     5   COL     6   RATE     640.000    
 BOUNDARY     67   LAYER   1   ROW     5   COL     7   RATE     640.000    
 BOUNDARY     68   LAYER   1   ROW     5   COL     8   RATE     640.000    
 BOUNDARY     69   LAYER   1   ROW     5   COL     9   RATE     640.000    
 BOUNDARY     70   LAYER   1   ROW     5   COL    10   RATE     640.000    
 BOUNDARY     71   LAYER   1   ROW     5   COL    11   RATE     640.000    
 BOUNDARY     72   LAYER   1   ROW     5   COL    12   RATE     640.000    
 BOUNDARY     73   LAYER   1   ROW     5   COL    13   RATE     640.000    
 BOUNDARY     74   LAYER   1   ROW     5   COL    14   RATE     640.000    
 BOUNDARY     75   LAYER   1   ROW     5   COL    15   RATE     640.000    
 BOUNDARY     76   LAYER   1   ROW     6   COL     1   RATE     640.000    
 BOUNDARY     77   LAYER   1   ROW     6   COL     2   RATE     640.000    
 BOUNDARY     78   LAYER   1   ROW     6   COL     3   RATE     640.000    
 BOUNDARY     79   LAYER   1   ROW     6   COL     4   RATE     640.000    
 BOUNDARY     80   LAYER   1   ROW     6   COL     5   RATE     640.000    
 BOUNDARY     81   LAYER   1   ROW     6   COL     6   RATE     640.000    
 BOUNDARY     82   LAYER   1   ROW     6   COL     7   RATE     640.000    
 BOUNDARY     83   LAYER   1   ROW     6   COL     8   RATE     640.000    
 BOUNDARY     84   LAYER   1   ROW     6   COL     9   RATE     640.000    
 BOUNDARY     85   LAYER   1   ROW     6   COL    10   RATE     640.000    
 BOUNDARY     86   LAYER   1   ROW     6   COL    11   RATE     640.000    
 BOUNDARY     87   LAYER   1   ROW     6   COL    12   RATE     640.000    
 BOUNDARY     88   LAYER   1   ROW     6   COL    13   RATE     640.000    
 BOUNDARY     89   LAYER   1   ROW     6   COL    14   RATE     640.000    
 BOUNDARY     90   LAYER   1   ROW     6   COL    15   RATE     640.000    
 BOUNDARY     91   LAYER   1   ROW     7   COL     1   RATE     640.000    
 BOUNDARY     92   LAYER   1   ROW     7   COL     2   RATE     640.000    
 BOUNDARY     93   LAYER   1   ROW     7   COL     3   RATE     640.000    
 BOUNDARY     94   LAYER   1   ROW     7   COL     4   RATE     640.000    
 BOUNDARY     95   LAYER   1   ROW     7   COL     5   RATE     640.000    
 BOUNDARY     96   LAYER   1   ROW     7   COL     6   RATE     640.000    
 BOUNDARY     97   LAYER   1   ROW     7   COL     7   RATE     640.000    
 BOUNDARY     98   LAYER   1   ROW     7   COL     8   RATE     640.000    
 BOUNDARY     99   LAYER   1   ROW     7   COL     9   RATE     640.000    
 BOUNDARY    100   LAYER   1   ROW     7   COL    10   RATE     640.000    
 BOUNDARY    101   LAYER   1   ROW     7   COL    11   RATE     640.000    
 BOUNDARY    102   LAYER   1   ROW     7   COL    12   RATE     640.000    
 BOUNDARY    103   LAYER   1   ROW     7   COL    13   RATE     640.000    
 BOUNDARY    104   LAYER   1   ROW     7   COL    14   RATE     640.000    
 BOUNDARY    105   LAYER   1   ROW     7   COL    15   RATE     640.000    
 BOUNDARY    106   LAYER   1   ROW     8   COL     1   RATE     640.000    
 BOUNDARY    107   LAYER   1   ROW     8   COL     2   RATE     640.000    
 BOUNDARY    108   LAYER   1   ROW     8   COL     3   RATE     640.000    
 BOUNDARY    109   LAYER   1   ROW     8   COL     4   RATE     640.000    
 BOUNDARY    110   LAYER   1   ROW     8   COL     5   RATE     640.000    
 BOUNDARY    111   LAYER   1   ROW     8   COL     6   RATE     640.000    
 BOUNDARY    112   LAYER   1   ROW     8   COL     7   RATE     640.000    
 BOUNDARY    113   LAYER   1   ROW     8   COL     8   RATE     640.000    
 BOUNDARY    114   LAYER   1   ROW     8   COL     9   RATE     640.000    
 BOUNDARY    115   LAYER   1   ROW     8   COL    10   RATE     640.000    
 BOUNDARY    116   LAYER   1   ROW     8   COL    11   RATE     640.000    
 BOUNDARY    117   LAYER   1   ROW     8   COL    12   RATE     640.000    
 BOUNDARY    118   LAYER   1   ROW     8   COL    13   RATE     640.000    
 BOUNDARY    119   LAYER   1   ROW     8   COL    14   RATE     640.000    
 BOUNDARY    120   LAYER   1   ROW     8   COL    15   RATE     640.000    
 BOUNDARY    121   LAYER   1   ROW     9   COL     1   RATE     640.000    
 BOUNDARY    122   LAYER   1   ROW     9   COL     2   RATE     640.000    
 BOUNDARY    123   LAYER   1   ROW     9   COL     3   RATE     640.000    
 BOUNDARY    124   LAYER   1   ROW     9   COL     4   RATE     640.000    
 BOUNDARY    125   LAYER   1   ROW     9   COL     5   RATE     640.000    
 BOUNDARY    126   LAYER   1   ROW     9   COL     6   RATE     640.000    
 BOUNDARY    127   LAYER   1   ROW     9   COL     7   RATE     640.000    
 BOUNDARY    128   LAYER   1   ROW     9   COL     8   RATE     640.000    
 BOUNDARY    129   LAYER   1   ROW     9   COL     9   RATE     640.000    
 BOUNDARY    130   LAYER   1   ROW     9   COL    10   RATE     640.000    
 BOUNDARY    131   LAYER   1   ROW     9   COL    11   RATE     640.000    
 BOUNDARY    132   LAYER   1   ROW     9   COL    12   RATE     640.000    
 BOUNDARY    133   LAYER   1   ROW     9   COL    13   RATE     640.000    
 BOUNDARY    134   LAYER   1   ROW     9   COL    14   RATE     640.000    
 BOUNDARY    135   LAYER   1   ROW     9   COL    15   RATE     640.000    
 BOUNDARY    136   LAYER   1   ROW    10   COL     1   RATE     640.000    
 BOUNDARY    137   LAYER   1   ROW    10   COL     2   RATE     640.000    
 BOUNDARY    138   LAYER   1   ROW    10   COL     3   RATE     640.000    
 BOUNDARY    139   LAYER   1   ROW    10   COL     4   RATE     640.000    
 BOUNDARY    140   LAYER   1   ROW    10   COL     5   RATE     640.000    
 BOUNDARY    141   LAYER   1   ROW    10   COL     6   RATE     640.000    
 BOUNDARY    142   LAYER   1   ROW    10   COL     7   RATE     640.000    
 BOUNDARY    143   LAYER   1   ROW    10   COL     8   RATE     640.000    
 BOUNDARY    144   LAYER   1   ROW    10   COL     9   RATE     640.000    
 BOUNDARY    145   LAYER   1   ROW    10   COL    10   RATE     640.000    
 BOUNDARY    146   LAYER   1   ROW    10   COL    11   RATE     640.000    
 BOUNDARY    147   LAYER   1   ROW    10   COL    12   RATE     640.000    
 BOUNDARY    148   LAYER   1   ROW    10   COL    13   RATE     640.000    
 BOUNDARY    149   LAYER   1   ROW    10   COL    14   RATE     640.000    
 BOUNDARY    150   LAYER   1   ROW    10   COL    15   RATE     640.000    
 UBDSV4 SAVING ET SEGS          ON UNIT   1016 AT TIME STEP      5, STRESS PERIOD      4

 ET SEGS            PERIOD  4   STEP  5
 BOUNDARY      1   LAYER   1   ROW     1   COL     1   RATE    -2.40325    
 BOUNDARY      2   LAYER   1   ROW     1   COL     2   RATE    -9.25529    
 BOUNDARY      3   LAYER   1   ROW     1   COL     3   RATE    -53.3458    
 BOUNDARY      4   LAYER   1   ROW     1   COL     4   RATE   -100.0000    
 BOUNDARY      5   LAYER   1   ROW     1   COL     5   RATE   -100.0000    
 BOUNDARY      6   LAYER   1   ROW     1   COL     6   RATE   -100.0000    
 BOUNDARY      7   LAYER   1   ROW     1   COL     7   RATE   -100.0000    
 BOUNDARY      8   LAYER   1   ROW     1   COL     8   RATE   -100.0000    
 BOUNDARY      9   LAYER   1   ROW     1   COL     9   RATE   -100.0000    
 BOUNDARY     10   LAYER   1   ROW     1   COL    10   RATE   -100.0000    
 BOUNDARY     11   LAYER   1   ROW     1   COL    11   RATE   -100.0000    
 BOUNDARY     12   LAYER   1   ROW     1   COL    12   RATE    -17.6765    
 BOUNDARY     13   LAYER   1   ROW     1   COL    13   RATE     0.00000    
 BOUNDARY     14   LAYER   1   ROW     1   COL    14   RATE     0.00000    
 BOUNDARY     15   LAYER   1   ROW     1   COL    15   RATE     0.00000    
 BOUNDARY     16   LAYER   1   ROW     2   COL     1   RATE     0.00000    
 BOUNDARY     17   LAYER   1   ROW     2   COL     2   RATE    -4.72839    
 BOUNDARY     18   LAYER   1   ROW     2   COL     3   RATE    -28.9669    
 BOUNDARY     19   LAYER   1   ROW     2   COL     4   RATE   -100.0000    
 BOUNDARY     20   LAYER   1   ROW     2   COL     5   RATE   -100.0000    
 BOUNDARY     21   LAYER   1   ROW     2   COL     6   RATE   -100.0000    
 BOUNDARY     22   LAYER   1   ROW     2   COL     7   RATE   -100.0000    
 BOUNDARY     23   LAYER   1   ROW     2   COL     8   RATE   -100.0000    
 BOUNDARY     24   LAYER   1   ROW     2   COL     9   RATE   -100.0000    
 BOUNDARY     25   LAYER   1   ROW     2   COL    10   RATE   -100.0000    
 BOUNDARY     26   LAYER   1   ROW     2   COL    11   RATE   -100.0000    
 BOUNDARY     27   LAYER   1   ROW     2   COL    12   RATE    -19.4166    
 BOUNDARY     28   LAYER   1   ROW     2   COL    13   RATE   -0.383085    
 BOUNDARY     29   LAYER   1   ROW     2   COL    14   RATE     0.00000    
 BOUNDARY     30   LAYER   1   ROW     2   COL    15   RATE     0.00000    
 BOUNDARY     31   LAYER   1   ROW     3   COL     1   RATE     0.00000    
 BOUNDARY     32   LAYER   1   ROW     3   COL     2   RATE     0.00000    
 BOUNDARY     33   LAYER   1   ROW     3   COL     3   RATE    -23.0963    
 BOUNDARY     34   LAYER   1   ROW     3   COL     4   RATE   -100.0000    
 BOUNDARY     35   LAYER   1   ROW     3   COL     5   RATE   -100.0000    
 BOUNDARY     36   LAYER   1   ROW     3   COL     6   RATE   -100.0000    
 BOUNDARY     37   LAYER   1   ROW     3   COL     7   RATE   -100.0000    
 BOUNDARY     38   LAYER   1   ROW     3   COL     8   RATE   -100.0000    
 BOUNDARY     39   LAYER   1   ROW     3   COL     9   RATE   -100.0000    
 BOUNDARY     40   LAYER   1   ROW     3   COL    10   RATE   -100.0000    
 BOUNDARY     41   LAYER   1   ROW     3   COL    11   RATE   -100.0000    
 BOUNDARY     42   LAYER   1   ROW     3   COL    12   RATE    -22.3515    
 BOUNDARY     43   LAYER   1   ROW     3   COL    13   RATE    -2.17426    
 BOUNDARY     44   LAYER   1   ROW     3   COL    14   RATE     0.00000    
 BOUNDARY     45   LAYER   1   ROW     3   COL    15   RATE     0.00000    
 BOUNDARY     46   LAYER   1   ROW     4   COL     1   RATE     0.00000    
 BOUNDARY     47   LAYER   1   ROW     4   COL     2   RATE    -3.22427    
 BOUNDARY     48   LAYER   1   ROW     4   COL     3   RATE    -26.9959    
 BOUNDARY     49   LAYER   1   ROW     4   COL     4   RATE   -100.0000    
 BOUNDARY     50   LAYER   1   ROW     4   COL     5   RATE   -100.0000    
 BOUNDARY     51   LAYER   1   ROW     4   COL     6   RATE   -100.0000    
 BOUNDARY     52   LAYER   1   ROW     4   COL     7   RATE   -100.0000    
 BOUNDARY     53   LAYER   1   ROW     4   COL     8   RATE   -100.0000    
 BOUNDARY     54   LAYER   1   ROW     4   COL     9   RATE   -100.0000    
 BOUNDARY     55   LAYER   1   ROW     4   COL    10   RATE   -100.0000    
 BOUNDARY     56   LAYER   1   ROW     4   COL    11   RATE   -100.0000    
 BOUNDARY     57   LAYER   1   ROW     4   COL    12   RATE    -25.1454    
 BOUNDARY     58   LAYER   1   ROW     4   COL    13   RATE    -3.63010    
 BOUNDARY     59   LAYER   1   ROW     4   COL    14   RATE     0.00000    
 BOUNDARY     60   LAYER   1   ROW     4   COL    15   RATE     0.00000    
 BOUNDARY     61   LAYER   1   ROW     5   COL     1   RATE     0.00000    
 BOUNDARY     62   LAYER   1   ROW     5   COL     2   RATE    -6.20069    
 BOUNDARY     63   LAYER   1   ROW     5   COL     3   RATE    -35.1330    
 BOUNDARY     64   LAYER   1   ROW     5   COL     4   RATE   -100.0000    
 BOUNDARY     65   LAYER   1   ROW     5   COL     5   RATE   -100.0000    
 BOUNDARY     66   LAYER   1   ROW     5   COL     6   RATE   -100.0000    
 BOUNDARY     67   LAYER   1   ROW     5   COL     7   RATE   -100.0000    
 BOUNDARY     68   LAYER   1   ROW     5   COL     8   RATE   -100.0000    
 BOUNDARY     69   LAYER   1   ROW     5   COL     9   RATE   -100.0000    
 BOUNDARY     70   LAYER   1   ROW     5   COL    10   RATE   -100.0000    
 BOUNDARY     71   LAYER   1   ROW     5   COL    11   RATE   -100.0000    
 BOUNDARY     72   LAYER   1   ROW     5   COL    12   RATE    -27.0717    
 BOUNDARY     73   LAYER   1   ROW     5   COL    13   RATE    -4.52327    
 BOUNDARY     74   LAYER   1   ROW     5   COL    14   RATE     0.00000    
 BOUNDARY     75   LAYER   1   ROW     5   COL    15   RATE     0.00000    
 BOUNDARY     76   LAYER   1   ROW     6   COL     1   RATE     0.00000    
 BOUNDARY     77   LAYER   1   ROW     6   COL     2   RATE    -4.76581    
 BOUNDARY     78   LAYER   1   ROW     6   COL     3   RATE    -38.9641    
 BOUNDARY     79   LAYER   1   ROW     6   COL     4   RATE   -100.0000    
 BOUNDARY     80   LAYER   1   ROW     6   COL     5   RATE   -100.0000    
 BOUNDARY     81   LAYER   1   ROW     6   COL     6   RATE   -100.0000    
 BOUNDARY     82   LAYER   1   ROW     6   COL     7   RATE   -100.0000    
 BOUNDARY     83   LAYER   1   ROW     6   COL     8   RATE   -100.0000    
 BOUNDARY     84   LAYER   1   ROW     6   COL     9   RATE   -100.0000    
 BOUNDARY     85   LAYER   1   ROW     6   COL    10   RATE   -100.0000    
 BOUNDARY     86   LAYER   1   ROW     6   COL    11   RATE   -100.0000    
 BOUNDARY     87   LAYER   1   ROW     6   COL    12   RATE    -27.7184    
 BOUNDARY     88   LAYER   1   ROW     6   COL    13   RATE    -4.47806    
 BOUNDARY     89   LAYER   1   ROW     6   COL    14   RATE     0.00000    
 BOUNDARY     90   LAYER   1   ROW     6   COL    15   RATE     0.00000    
 BOUNDARY     91   LAYER   1   ROW     7   COL     1   RATE     0.00000    
 BOUNDARY     92   LAYER   1   ROW     7   COL     2   RATE    -1.25262    
 BOUNDARY     93   LAYER   1   ROW     7   COL     3   RATE    -45.8120    
 BOUNDARY     94   LAYER   1   ROW     7   COL     4   RATE   -100.0000    
 BOUNDARY     95   LAYER   1   ROW     7   COL     5   RATE   -100.0000    
 BOUNDARY     96   LAYER   1   ROW     7   COL     6   RATE   -100.0000    
 BOUNDARY     97   LAYER   1   ROW     7   COL     7   RATE   -100.0000    
 BOUNDARY     98   LAYER   1   ROW     7   COL     8   RATE   -100.0000    
 BOUNDARY     99   LAYER   1   ROW     7   COL     9   RATE   -100.0000    
 BOUNDARY    100   LAYER   1   ROW     7   COL    10   RATE   -100.0000    
 BOUNDARY    101   LAYER   1   ROW     7   COL    11   RATE   -100.0000    
 BOUNDARY    102   LAYER   1   ROW     7   COL    12   RATE    -27.5640    
 BOUNDARY    103   LAYER   1   ROW     7   COL    13   RATE    -3.75450    
 BOUNDARY    104   LAYER   1   ROW     7   COL    14   RATE     0.00000    
 BOUNDARY    105   LAYER   1   ROW     7   COL    15   RATE     0.00000    
 BOUNDARY    106   LAYER   1   ROW     8   COL     1   RATE     0.00000    
 BOUNDARY    107   LAYER   1   ROW     8   COL     2   RATE    -12.0982    
 BOUNDARY    108   LAYER   1   ROW     8   COL     3   RATE   -100.0000    
 BOUNDARY    109   LAYER   1   ROW     8   COL     4   RATE   -100.0000    
 BOUNDARY    110   LAYER   1   ROW     8   COL     5   RATE   -100.0000    
 BOUNDARY    111   LAYER   1   ROW     8   COL     6   RATE   -100.0000    
 BOUNDARY    112   LAYER   1   ROW     8   COL     7   RATE   -100.0000    
 BOUNDARY    113   LAYER   1   ROW     8   COL     8   RATE   -100.0000    
 BOUNDARY    114   LAYER   1   ROW     8   COL     9   RATE   -100.0000    
 BOUNDARY    115   LAYER   1   ROW     8   COL    10   RATE   -100.0000    
 BOUNDARY    116   LAYER   1   ROW     8   COL    11   RATE   -100.0000    
 BOUNDARY    117   LAYER   1   ROW     8   COL    12   RATE    -27.9637    
 BOUNDARY    118   LAYER   1   ROW     8   COL    13   RATE    -3.77221    
 BOUNDARY    119   LAYER   1   ROW     8   COL    14   RATE     0.00000    
 BOUNDARY    120   LAYER   1   ROW     8   COL    15   RATE     0.00000    
 BOUNDARY    121   LAYER   1   ROW     9   COL     1   RATE    -19.6860    
 BOUNDARY    122   LAYER   1   ROW     9   COL     2   RATE    -64.9554    
 BOUNDARY    123   LAYER   1   ROW     9   COL     3   RATE   -100.0000    
 BOUNDARY    124   LAYER   1   ROW     9   COL     4   RATE   -100.0000    
 BOUNDARY    125   LAYER   1   ROW     9   COL     5   RATE   -100.0000    
 BOUNDARY    126   LAYER   1   ROW     9   COL     6   RATE   -100.0000    
 BOUNDARY    127   LAYER   1   ROW     9   COL     7   RATE   -100.0000    
 BOUNDARY    128   LAYER   1   ROW     9   COL     8   RATE   -100.0000    
 BOUNDARY    129   LAYER   1   ROW     9   COL     9   RATE   -100.0000    
 BOUNDARY    130   LAYER   1   ROW     9   COL    10   RATE   -100.0000    
 BOUNDARY    131   LAYER   1   ROW     9   COL    11   RATE   -100.0000    
 BOUNDARY    132   LAYER   1   ROW     9   COL    12   RATE    -29.0778    
 BOUNDARY    133   LAYER   1   ROW     9   COL    13   RATE    -4.61436    
 BOUNDARY    134   LAYER   1   ROW     9   COL    14   RATE     0.00000    
 BOUNDARY    135   LAYER   1   ROW     9   COL    15   RATE     0.00000    
 BOUNDARY    136   LAYER   1   ROW    10   COL     1   RATE    -73.1630    
 BOUNDARY    137   LAYER   1   ROW    10   COL     2   RATE   -100.0000    
 BOUNDARY    138   LAYER   1   ROW    10   COL     3   RATE   -100.0000    
 BOUNDARY    139   LAYER   1   ROW    10   COL     4   RATE   -100.0000    
 BOUNDARY    140   LAYER   1   ROW    10   COL     5   RATE   -100.0000    
 BOUNDARY    141   LAYER   1   ROW    10   COL     6   RATE   -100.0000    
 BOUNDARY    142   LAYER   1   ROW    10   COL     7   RATE   -100.0000    
 BOUNDARY    143   LAYER   1   ROW    10   COL     8   RATE   -100.0000    
 BOUNDARY    144   LAYER   1   ROW    10   COL     9   RATE   -100.0000    
 BOUNDARY    145   LAYER   1   ROW    10   COL    10   RATE   -100.0000    
 BOUNDARY    146   LAYER   1   ROW    10   COL    11   RATE   -100.0000    
 BOUNDARY    147   LAYER   1   ROW    10   COL    12   RATE    -29.8811    
 BOUNDARY    148   LAYER   1   ROW    10   COL    13   RATE    -5.15182    
 BOUNDARY    149   LAYER   1   ROW    10   COL    14   RATE     0.00000    
 BOUNDARY    150   LAYER   1   ROW    10   COL    15   RATE     0.00000    

 HEAD WILL BE SAVED ON UNIT 1017 AT END OF TIME STEP    5, STRESS PERIOD    4
WEL   no.    1 value from time series:   0.0000     for time:  65.00     to  66.00    
WEL   no.    2 value from time series:   0.0000     for time:  65.00     to  66.00    
RIV   no.    1 value from time series:   101.00     for time:  65.00     to  66.00    
RIV   no.    2 value from time series:   101.00     for time:  65.00     to  66.00    
RIV   no.    3 value from time series:   111.50     for time:  65.00     to  66.00    
RIV   no.    4 value from time series:   111.50     for time:  65.00     to  66.00    
RIV   no.    5 value from time series:   115.10     for time:  65.00     to  66.00    
RIV   no.    6 value from time series:   115.10     for time:  65.00     to  66.00    
RIV   no.    7 value from time series:   104.00     for time:  65.00     to  66.00    
RIV   no.    8 value from time series:   104.00     for time:  65.00     to  66.00    
RIV   no.    9 value from time series:   113.50     for time:  65.00     to  66.00    
RIV   no.   10 value from time series:   113.50     for time:  65.00     to  66.00    
WEL   no.    1 value from time series:   0.0000     for time:  65.00     to  66.00    
WEL   no.    2 value from time series:   0.0000     for time:  65.00     to  66.00    
RIV   no.    1 value from time series:   101.00     for time:  65.00     to  66.00    
RIV   no.    2 value from time series:   101.00     for time:  65.00     to  66.00    
RIV   no.    3 value from time series:   111.50     for time:  65.00     to  66.00    
RIV   no.    4 value from time series:   111.50     for time:  65.00     to  66.00    
RIV   no.    5 value from time series:   115.10     for time:  65.00     to  66.00    
RIV   no.    6 value from time series:   115.10     for time:  65.00     to  66.00    
RIV   no.    7 value from time series:   104.00     for time:  65.00     to  66.00    
RIV   no.    8 value from time series:   104.00     for time:  65.00     to  66.00    
RIV   no.    9 value from time series:   113.50     for time:  65.00     to  66.00    
RIV   no.   10 value from time series:   113.50     for time:  65.00     to  66.00    

 OUTPUT CONTROL FOR STRESS PERIOD    4   TIME STEP    6
    SAVE BUDGET
    SAVE HEAD
    SAVE HEAD FOR ALL LAYERS
 UBDSV1 SAVING          STORAGE ON UNIT   1016 AT TIME STEP      6, STRESS PERIOD      4
 UBDSV1 SAVING FLOW RIGHT FACE  ON UNIT   1016 AT TIME STEP      6, STRESS PERIOD      4
 UBDSV1 SAVING FLOW FRONT FACE  ON UNIT   1016 AT TIME STEP      6, STRESS PERIOD      4
 UBDSV1 SAVING FLOW LOWER FACE  ON UNIT   1016 AT TIME STEP      6, STRESS PERIOD      4
 UBDSV4 SAVING WELLS NEAR RIVER ON UNIT   1016 AT TIME STEP      6, STRESS PERIOD      4

 WELLS NEAR RIVER   PERIOD  4   STEP  6
 BOUNDARY      1   LAYER   2   ROW     8   COL     4   RATE     0.00000      WELL_2
 BOUNDARY      2   LAYER   2   ROW     3   COL     4   RATE     0.00000      WELL_1
 UBDSV4 SAVING RIVER            ON UNIT   1016 AT TIME STEP      6, STRESS PERIOD      4

 RIVER              PERIOD  4   STEP  6
 BOUNDARY      1   LAYER   1   ROW     1   COL    15   RATE    -4811.21    
 BOUNDARY      2   LAYER   1   ROW     2   COL    15   RATE    -5930.09      RIV2
 BOUNDARY      3   LAYER   1   ROW     3   COL    15   RATE    -2188.54      RIV3
 BOUNDARY      4   LAYER   1   ROW     4   COL    15   RATE    -3649.32    
 BOUNDARY      5   LAYER   1   ROW     5   COL    15   RATE    -2290.06    
 BOUNDARY      6   LAYER   1   ROW     6   COL    15   RATE    -1640.39    
 BOUNDARY      7   LAYER   1   ROW     7   COL    15   RATE    -6121.29      RIVX
 BOUNDARY      8   LAYER   1   ROW     8   COL    15   RATE    -5964.00      RIVX
 BOUNDARY      9   LAYER   1   ROW     9   COL    15   RATE    -2166.97      RIVX
 BOUNDARY     10   LAYER   1   ROW    10   COL    15   RATE    -3066.45    

 GHB LAKES          PERIOD  4   STEP  6
 BOUNDARY      1   LAYER   1   ROW     3   COL     1   RATE    -14562.4    
 BOUNDARY      2   LAYER   1   ROW     7   COL     1   RATE    -1911.74      GHB2_UPPER
 BOUNDARY      3   LAYER   1   ROW     7   COL     1   RATE    -13260.4      GHB2_LOWER
 UBDSV4 SAVING RECHARGE         ON UNIT   1016 AT TIME STEP      6, STRESS PERIOD      4

 RECHARGE           PERIOD  4   STEP  6
 BOUNDARY      1   LAYER   1   ROW     1   COL     1   RATE     643.333    
 BOUNDARY      2   LAYER   1   ROW     1   COL     2   RATE     643.333    
 BOUNDARY      3   LAYER   1   ROW     1   COL     3   RATE     643.333    
 BOUNDARY      4   LAYER   1   ROW     1   COL     4   RATE     643.333    
 BOUNDARY      5   LAYER   1   ROW     1   COL     5   RATE     643.333    
 BOUNDARY      6   LAYER   1   ROW     1   COL     6   RATE     643.333    
 BOUNDARY      7   LAYER   1   ROW     1   COL     7   RATE     643.333    
 BOUNDARY      8   LAYER   1   ROW     1   COL     8   RATE     643.333    
 BOUNDARY      9   LAYER   1   ROW     1   COL     9   RATE     643.333    
 BOUNDARY     10   LAYER   1   ROW     1   COL    10   RATE     643.333    
 BOUNDARY     11   LAYER   1   ROW     1   COL    11   RATE     643.333    
 BOUNDARY     12   LAYER   1   ROW     1   COL    12   RATE     643.333    
 BOUNDARY     13   LAYER   1   ROW     1   COL    13   RATE     643.333    
 BOUNDARY     14   LAYER   1   ROW     1   COL    14   RATE     643.333    
 BOUNDARY     15   LAYER   1   ROW     1   COL    15   RATE     643.333    
 BOUNDARY     16   LAYER   1   ROW     2   COL     1   RATE     643.333    
 BOUNDARY     17   LAYER   1   ROW     2   COL     2   RATE     643.333    
 BOUNDARY     18   LAYER   1   ROW     2   COL     3   RATE     643.333    
 BOUNDARY     19   LAYER   1   ROW     2   COL     4   RATE     643.333    
 BOUNDARY     20   LAYER   1   ROW     2   COL     5   RATE     643.333    
 BOUNDARY     21   LAYER   1   ROW     2   COL     6   RATE     643.333    
 BOUNDARY     22   LAYER   1   ROW     2   COL     7   RATE     643.333    
 BOUNDARY     23   LAYER   1   ROW     2   COL     8   RATE     643.333    
 BOUNDARY     24   LAYER   1   ROW     2   COL     9   RATE     643.333    
 BOUNDARY     25   LAYER   1   ROW     2   COL    10   RATE     643.333    
 BOUNDARY     26   LAYER   1   ROW     2   COL    11   RATE     643.333    
 BOUNDARY     27   LAYER   1   ROW     2   COL    12   RATE     643.333    
 BOUNDARY     28   LAYER   1   ROW     2   COL    13   RATE     643.333    
 BOUNDARY     29   LAYER   1   ROW     2   COL    14   RATE     643.333    
 BOUNDARY     30   LAYER   1   ROW     2   COL    15   RATE     643.333    
 BOUNDARY     31   LAYER   1   ROW     3   COL     1   RATE     643.333    
 BOUNDARY     32   LAYER   1   ROW     3   COL     2   RATE     643.333    
 BOUNDARY     33   LAYER   1   ROW     3   COL     3   RATE     643.333    
 BOUNDARY     34   LAYER   1   ROW     3   COL     4   RATE     643.333    
 BOUNDARY     35   LAYER   1   ROW     3   COL     5   RATE     643.333    
 BOUNDARY     36   LAYER   1   ROW     3   COL     6   RATE     643.333    
 BOUNDARY     37   LAYER   1   ROW     3   COL     7   RATE     643.333    
 BOUNDARY     38   LAYER   1   ROW     3   COL     8   RATE     643.333    
 BOUNDARY     39   LAYER   1   ROW     3   COL     9   RATE     643.333    
 BOUNDARY     40   LAYER   1   ROW     3   COL    10   RATE     643.333    
 BOUNDARY     41   LAYER   1   ROW     3   COL    11   RATE     643.333    
 BOUNDARY     42   LAYER   1   ROW     3   COL    12   RATE     643.333    
 BOUNDARY     43   LAYER   1   ROW     3   COL    13   RATE     643.333    
 BOUNDARY     44   LAYER   1   ROW     3   COL    14   RATE     643.333    
 BOUNDARY     45   LAYER   1   ROW     3   COL    15   RATE     643.333    
 BOUNDARY     46   LAYER   1   ROW     4   COL     1   RATE     643.333    
 BOUNDARY     47   LAYER   1   ROW     4   COL     2   RATE     643.333    
 BOUNDARY     48   LAYER   1   ROW     4   COL     3   RATE     643.333    
 BOUNDARY     49   LAYER   1   ROW     4   COL     4   RATE     643.333    
 BOUNDARY     50   LAYER   1   ROW     4   COL     5   RATE     643.333    
 BOUNDARY     51   LAYER   1   ROW     4   COL     6   RATE     643.333    
 BOUNDARY     52   LAYER   1   ROW     4   COL     7   RATE     643.333    
 BOUNDARY     53   LAYER   1   ROW     4   COL     8   RATE     643.333    
 BOUNDARY     54   LAYER   1   ROW     4   COL     9   RATE     643.333    
 BOUNDARY     55   LAYER   1   ROW     4   COL    10   RATE     643.333    
 BOUNDARY     56   LAYER   1   ROW     4   COL    11   RATE     643.333    
 BOUNDARY     57   LAYER   1   ROW     4   COL    12   RATE     643.333    
 BOUNDARY     58   LAYER   1   ROW     4   COL    13   RATE     643.333    
 BOUNDARY     59   LAYER   1   ROW     4   COL    14   RATE     643.333    
 BOUNDARY     60   LAYER   1   ROW     4   COL    15   RATE     643.333    
 BOUNDARY     61   LAYER   1   ROW     5   COL     1   RATE     643.333    
 BOUNDARY     62   LAYER   1   ROW     5   COL     2   RATE     643.333    
 BOUNDARY     63   LAYER   1   ROW     5   COL     3   RATE     643.333    
 BOUNDARY     64   LAYER   1   ROW     5   COL     4   RATE     643.333    
 BOUNDARY     65   LAYER   1   ROW     5   COL     5   RATE     643.333    
 BOUNDARY     66   LAYER   1   ROW     5   COL     6   RATE     643.333    
 BOUNDARY     67   LAYER   1   ROW     5   COL     7   RATE     643.333    
 BOUNDARY     68   LAYER   1   ROW     5   COL     8   RATE     643.333    
 BOUNDARY     69   LAYER   1   ROW     5   COL     9   RATE     643.333    
 BOUNDARY     70   LAYER   1   ROW     5   COL    10   RATE     643.333    
 BOUNDARY     71   LAYER   1   ROW     5   COL    11   RATE     643.333    
 BOUNDARY     72   LAYER   1   ROW     5   COL    12   RATE     643.333    
 BOUNDARY     73   LAYER   1   ROW     5   COL    13   RATE     643.333    
 BOUNDARY     74   LAYER   1   ROW     5   COL    14   RATE     643.333    
 BOUNDARY     75   LAYER   1   ROW     5   COL    15   RATE     643.333    
 BOUNDARY     76   LAYER   1   ROW     6   COL     1   RATE     643.333    
 BOUNDARY     77   LAYER   1   ROW     6   COL     2   RATE     643.333    
 BOUNDARY     78   LAYER   1   ROW     6   COL     3   RATE     643.333    
 BOUNDARY     79   LAYER   1   ROW     6   COL     4   RATE     643.333    
 BOUNDARY     80   LAYER   1   ROW     6   COL     5   RATE     643.333    
 BOUNDARY     81   LAYER   1   ROW     6   COL     6   RATE     643.333    
 BOUNDARY     82   LAYER   1   ROW     6   COL     7   RATE     643.333    
 BOUNDARY     83   LAYER   1   ROW     6   COL     8   RATE     643.333    
 BOUNDARY     84   LAYER   1   ROW     6   COL     9   RATE     643.333    
 BOUNDARY     85   LAYER   1   ROW     6   COL    10   RATE     643.333    
 BOUNDARY     86   LAYER   1   ROW     6   COL    11   RATE     643.333    
 BOUNDARY     87   LAYER   1   ROW     6   COL    12   RATE     643.333    
 BOUNDARY     88   LAYER   1   ROW     6   COL    13   RATE     643.333    
 BOUNDARY     89   LAYER   1   ROW     6   COL    14   RATE     643.333    
 BOUNDARY     90   LAYER   1   ROW     6   COL    15   RATE     643.333    
 BOUNDARY     91   LAYER   1   ROW     7   COL     1   RATE     643.333    
 BOUNDARY     92   LAYER   1   ROW     7   COL     2   RATE     643.333    
 BOUNDARY     93   LAYER   1   ROW     7   COL     3   RATE     643.333    
 BOUNDARY     94   LAYER   1   ROW     7   COL     4   RATE     643.333    
 BOUNDARY     95   LAYER   1   ROW     7   COL     5   RATE     643.333    
 BOUNDARY     96   LAYER   1   ROW     7   COL     6   RATE     643.333    
 BOUNDARY     97   LAYER   1   ROW     7   COL     7   RATE     643.333    
 BOUNDARY     98   LAYER   1   ROW     7   COL     8   RATE     643.333    
 BOUNDARY     99   LAYER   1   ROW     7   COL     9   RATE     643.333    
 BOUNDARY    100   LAYER   1   ROW     7   COL    10   RATE     643.333    
 BOUNDARY    101   LAYER   1   ROW     7   COL    11   RATE     643.333    
 BOUNDARY    102   LAYER   1   ROW     7   COL    12   RATE     643.333    
 BOUNDARY    103   LAYER   1   ROW     7   COL    13   RATE     643.333    
 BOUNDARY    104   LAYER   1   ROW     7   COL    14   RATE     643.333    
 BOUNDARY    105   LAYER   1   ROW     7   COL    15   RATE     643.333    
 BOUNDARY    106   LAYER   1   ROW     8   COL     1   RATE     643.333    
 BOUNDARY    107   LAYER   1   ROW     8   COL     2   RATE     643.333    
 BOUNDARY    108   LAYER   1   ROW     8   COL     3   RATE     643.333    
 BOUNDARY    109   LAYER   1   ROW     8   COL     4   RATE     643.333    
 BOUNDARY    110   LAYER   1   ROW     8   COL     5   RATE     643.333    
 BOUNDARY    111   LAYER   1   ROW     8   COL     6   RATE     643.333    
 BOUNDARY    112   LAYER   1   ROW     8   COL     7   RATE     643.333    
 BOUNDARY    113   LAYER   1   ROW     8   COL     8   RATE     643.333    
 BOUNDARY    114   LAYER   1   ROW     8   COL     9   RATE     643.333    
 BOUNDARY    115   LAYER   1   ROW     8   COL    10   RATE     643.333    
 BOUNDARY    116   LAYER   1   ROW     8   COL    11   RATE     643.333    
 BOUNDARY    117   LAYER   1   ROW     8   COL    12   RATE     643.333    
 BOUNDARY    118   LAYER   1   ROW     8   COL    13   RATE     643.333    
 BOUNDARY    119   LAYER   1   ROW     8   COL    14   RATE     643.333    
 BOUNDARY    120   LAYER   1   ROW     8   COL    15   RATE     643.333    
 BOUNDARY    121   LAYER   1   ROW     9   COL     1   RATE     643.333    
 BOUNDARY    122   LAYER   1   ROW     9   COL     2   RATE     643.333    
 BOUNDARY    123   LAYER   1   ROW     9   COL     3   RATE     643.333    
 BOUNDARY    124   LAYER   1   ROW     9   COL     4   RATE     643.333    
 BOUNDARY    125   LAYER   1   ROW     9   COL     5   RATE     643.333    
 BOUNDARY    126   LAYER   1   ROW     9   COL     6   RATE     643.333    
 BOUNDARY    127   LAYER   1   ROW     9   COL     7   RATE     643.333    
 BOUNDARY    128   LAYER   1   ROW     9   COL     8   RATE     643.333    
 BOUNDARY    129   LAYER   1   ROW     9   COL     9   RATE     643.333    
 BOUNDARY    130   LAYER   1   ROW     9   COL    10   RATE     643.333    
 BOUNDARY    131   LAYER   1   ROW     9   COL    11   RATE     643.333    
 BOUNDARY    132   LAYER   1   ROW     9   COL    12   RATE     643.333    
 BOUNDARY    133   LAYER   1   ROW     9   COL    13   RATE     643.333    
 BOUNDARY    134   LAYER   1   ROW     9   COL    14   RATE     643.333    
 BOUNDARY    135   LAYER   1   ROW     9   COL    15   RATE     643.333    
 BOUNDARY    136   LAYER   1   ROW    10   COL     1   RATE     643.333    
 BOUNDARY    137   LAYER   1   ROW    10   COL     2   RATE     643.333    
 BOUNDARY    138   LAYER   1   ROW    10   COL     3   RATE     643.333    
 BOUNDARY    139   LAYER   1   ROW    10   COL     4   RATE     643.333    
 BOUNDARY    140   LAYER   1   ROW    10   COL     5   RATE     643.333    
 BOUNDARY    141   LAYER   1   ROW    10   COL     6   RATE     643.333    
 BOUNDARY    142   LAYER   1   ROW    10   COL     7   RATE     643.333    
 BOUNDARY    143   LAYER   1   ROW    10   COL     8   RATE     643.333    
 BOUNDARY    144   LAYER   1   ROW    10   COL     9   RATE     643.333    
 BOUNDARY    145   LAYER   1   ROW    10   COL    10   RATE     643.333    
 BOUNDARY    146   LAYER   1   ROW    10   COL    11   RATE     643.333    
 BOUNDARY    147   LAYER   1   ROW    10   COL    12   RATE     643.333    
 BOUNDARY    148   LAYER   1   ROW    10   COL    13   RATE     643.333    
 BOUNDARY    149   LAYER   1   ROW    10   COL    14   RATE     643.333    
 BOUNDARY    150   LAYER   1   ROW    10   COL    15   RATE     643.333    
 UBDSV4 SAVING ET SEGS          ON UNIT   1016 AT TIME STEP      6, STRESS PERIOD      4

 ET SEGS            PERIOD  4   STEP  6
 BOUNDARY      1   LAYER   1   ROW     1   COL     1   RATE    -2.41417    
 BOUNDARY      2   LAYER   1   ROW     1   COL     2   RATE    -9.26617    
 BOUNDARY      3   LAYER   1   ROW     1   COL     3   RATE    -53.5336    
 BOUNDARY      4   LAYER   1   ROW     1   COL     4   RATE   -100.0000    
 BOUNDARY      5   LAYER   1   ROW     1   COL     5   RATE   -100.0000    
 BOUNDARY      6   LAYER   1   ROW     1   COL     6   RATE   -100.0000    
 BOUNDARY      7   LAYER   1   ROW     1   COL     7   RATE   -100.0000    
 BOUNDARY      8   LAYER   1   ROW     1   COL     8   RATE   -100.0000    
 BOUNDARY      9   LAYER   1   ROW     1   COL     9   RATE   -100.0000    
 BOUNDARY     10   LAYER   1   ROW     1   COL    10   RATE   -100.0000    
 BOUNDARY     11   LAYER   1   ROW     1   COL    11   RATE   -100.0000    
 BOUNDARY     12   LAYER   1   ROW     1   COL    12   RATE    -17.7146    
 BOUNDARY     13   LAYER   1   ROW     1   COL    13   RATE     0.00000    
 BOUNDARY     14   LAYER   1   ROW     1   COL    14   RATE     0.00000    
 BOUNDARY     15   LAYER   1   ROW     1   COL    15   RATE     0.00000    
 BOUNDARY     16   LAYER   1   ROW     2   COL     1   RATE     0.00000    
 BOUNDARY     17   LAYER   1   ROW     2   COL     2   RATE    -4.73909    
 BOUNDARY     18   LAYER   1   ROW     2   COL     3   RATE    -29.0105    
 BOUNDARY     19   LAYER   1   ROW     2   COL     4   RATE   -100.0000    
 BOUNDARY     20   LAYER   1   ROW     2   COL     5   RATE   -100.0000    
 BOUNDARY     21   LAYER   1   ROW     2   COL     6   RATE   -100.0000    
 BOUNDARY     22   LAYER   1   ROW     2   COL     7   RATE   -100.0000    
 BOUNDARY     23   LAYER   1   ROW     2   COL     8   RATE   -100.0000    
 BOUNDARY     24   LAYER   1   ROW     2   COL     9   RATE   -100.0000    
 BOUNDARY     25   LAYER   1   ROW     2   COL    10   RATE   -100.0000    
 BOUNDARY     26   LAYER   1   ROW     2   COL    11   RATE   -100.0000    
 BOUNDARY     27   LAYER   1   ROW     2   COL    12   RATE    -19.4547    
 BOUNDARY     28   LAYER   1   ROW     2   COL    13   RATE   -0.394515    
 BOUNDARY     29   LAYER   1   ROW     2   COL    14   RATE     0.00000    
 BOUNDARY     30   LAYER   1   ROW     2   COL    15   RATE     0.00000    
 BOUNDARY     31   LAYER   1   ROW     3   COL     1   RATE     0.00000    
 BOUNDARY     32   LAYER   1   ROW     3   COL     2   RATE     0.00000    
 BOUNDARY     33   LAYER   1   ROW     3   COL     3   RATE    -23.1325    
 BOUNDARY     34   LAYER   1   ROW     3   COL     4   RATE   -100.0000    
 BOUNDARY     35   LAYER   1   ROW     3   COL     5   RATE   -100.0000    
 BOUNDARY     36   LAYER   1   ROW     3   COL     6   RATE   -100.0000    
 BOUNDARY     37   LAYER   1   ROW     3   COL     7   RATE   -100.0000    
 BOUNDARY     38   LAYER   1   ROW     3   COL     8   RATE   -100.0000    
 BOUNDARY     39   LAYER   1   ROW     3   COL     9   RATE   -100.0000    
 BOUNDARY     40   LAYER   1   ROW     3   COL    10   RATE   -100.0000    
 BOUNDARY     41   LAYER   1   ROW     3   COL    11   RATE   -100.0000    
 BOUNDARY     42   LAYER   1   ROW     3   COL    12   RATE    -22.3897    
 BOUNDARY     43   LAYER   1   ROW     3   COL    13   RATE    -2.18582    
 BOUNDARY     44   LAYER   1   ROW     3   COL    14   RATE     0.00000    
 BOUNDARY     45   LAYER   1   ROW     3   COL    15   RATE     0.00000    
 BOUNDARY     46   LAYER   1   ROW     4   COL     1   RATE     0.00000    
 BOUNDARY     47   LAYER   1   ROW     4   COL     2   RATE    -3.23509    
 BOUNDARY     48   LAYER   1   ROW     4   COL     3   RATE    -27.0325    
 BOUNDARY     49   LAYER   1   ROW     4   COL     4   RATE   -100.0000    
 BOUNDARY     50   LAYER   1   ROW     4   COL     5   RATE   -100.0000    
 BOUNDARY     51   LAYER   1   ROW     4   COL     6   RATE   -100.0000    
 BOUNDARY     52   LAYER   1   ROW     4   COL     7   RATE   -100.0000    
 BOUNDARY     53   LAYER   1   ROW     4   COL     8   RATE   -100.0000    
 BOUNDARY     54   LAYER   1   ROW     4   COL     9   RATE   -100.0000    
 BOUNDARY     55   LAYER   1   ROW     4   COL    10   RATE   -100.0000    
 BOUNDARY     56   LAYER   1   ROW     4   COL    11   RATE   -100.0000    
 BOUNDARY     57   LAYER   1   ROW     4   COL    12   RATE    -25.1833    
 BOUNDARY     58   LAYER   1   ROW     4   COL    13   RATE    -3.64147    
 BOUNDARY     59   LAYER   1   ROW     4   COL    14   RATE     0.00000    
 BOUNDARY     60   LAYER   1   ROW     4   COL    15   RATE     0.00000    
 BOUNDARY     61   LAYER   1   ROW     5   COL     1   RATE     0.00000    
 BOUNDARY     62   LAYER   1   ROW     5   COL     2   RATE    -6.21165    
 BOUNDARY     63   LAYER   1   ROW     5   COL     3   RATE    -35.3239    
 BOUNDARY     64   LAYER   1   ROW     5   COL     4   RATE   -100.0000    
 BOUNDARY     65   LAYER   1   ROW     5   COL     5   RATE   -100.0000    
 BOUNDARY     66   LAYER   1   ROW     5   COL     6   RATE   -100.0000    
 BOUNDARY     67   LAYER   1   ROW     5   COL     7   RATE   -100.0000    
 BOUNDARY     68   LAYER   1   ROW     5   COL     8   RATE   -100.0000    
 BOUNDARY     69   LAYER   1   ROW     5   COL     9   RATE   -100.0000    
 BOUNDARY     70   LAYER   1   ROW     5   COL    10   RATE   -100.0000    
 BOUNDARY     71   LAYER   1   ROW     5   COL    11   RATE   -100.0000    
 BOUNDARY     72   LAYER   1   ROW     5   COL    12   RATE    -27.1092    
 BOUNDARY     73   LAYER   1   ROW     5   COL    13   RATE    -4.53423    
 BOUNDARY     74   LAYER   1   ROW     5   COL    14   RATE     0.00000    
 BOUNDARY     75   LAYER   1   ROW     5   COL    15   RATE     0.00000    
 BOUNDARY     76   LAYER   1   ROW     6   COL     1   RATE     0.00000    
 BOUNDARY     77   LAYER   1   ROW     6   COL     2   RATE    -4.77652    
 BOUNDARY     78   LAYER   1   ROW     6   COL     3   RATE    -39.1537    
 BOUNDARY     79   LAYER   1   ROW     6   COL     4   RATE   -100.0000    
 BOUNDARY     80   LAYER   1   ROW     6   COL     5   RATE   -100.0000    
 BOUNDARY     81   LAYER   1   ROW     6   COL     6   RATE   -100.0000    
 BOUNDARY     82   LAYER   1   ROW     6   COL     7   RATE   -100.0000    
 BOUNDARY     83   LAYER   1   ROW     6   COL     8   RATE   -100.0000    
 BOUNDARY     84   LAYER   1   ROW     6   COL     9   RATE   -100.0000    
 BOUNDARY     85   LAYER   1   ROW     6   COL    10   RATE   -100.0000    
 BOUNDARY     86   LAYER   1   ROW     6   COL    11   RATE   -100.0000    
 BOUNDARY     87   LAYER   1   ROW     6   COL    12   RATE    -27.7557    
 BOUNDARY     88   LAYER   1   ROW     6   COL    13   RATE    -4.48888    
 BOUNDARY     89   LAYER   1   ROW     6   COL    14   RATE     0.00000    
 BOUNDARY     90   LAYER   1   ROW     6   COL    15   RATE     0.00000    
 BOUNDARY     91   LAYER   1   ROW     7   COL     1   RATE     0.00000    
 BOUNDARY     92   LAYER   1   ROW     7   COL     2   RATE    -1.26267    
 BOUNDARY     93   LAYER   1   ROW     7   COL     3   RATE    -46.0004    
 BOUNDARY     94   LAYER   1   ROW     7   COL     4   RATE   -100.0000    
 BOUNDARY     95   LAYER   1   ROW     7   COL     5   RATE   -100.0000    
 BOUNDARY     96   LAYER   1   ROW     7   COL     6   RATE   -100.0000    
 BOUNDARY     97   LAYER   1   ROW     7   COL     7   RATE   -100.0000    
 BOUNDARY     98   LAYER   1   ROW     7   COL     8   RATE   -100.0000    
 BOUNDARY     99   LAYER   1   ROW     7   COL     9   RATE   -100.0000    
 BOUNDARY    100   LAYER   1   ROW     7   COL    10   RATE   -100.0000    
 BOUNDARY    101   LAYER   1   ROW     7   COL    11   RATE   -100.0000    
 BOUNDARY    102   LAYER   1   ROW     7   COL    12   RATE    -27.6016    
 BOUNDARY    103   LAYER   1   ROW     7   COL    13   RATE    -3.76554    
 BOUNDARY    104   LAYER   1   ROW     7   COL    14   RATE     0.00000    
 BOUNDARY    105   LAYER   1   ROW     7   COL    15   RATE     0.00000    
 BOUNDARY    106   LAYER   1   ROW     8   COL     1   RATE     0.00000    
 BOUNDARY    107   LAYER   1   ROW     8   COL     2   RATE    -12.1339    
 BOUNDARY    108   LAYER   1   ROW     8   COL     3   RATE   -100.0000    
 BOUNDARY    109   LAYER   1   ROW     8   COL     4   RATE   -100.0000    
 BOUNDARY    110   LAYER   1   ROW     8   COL     5   RATE   -100.0000    
 BOUNDARY    111   LAYER   1   ROW     8   COL     6   RATE   -100.0000    
 BOUNDARY    112   LAYER   1   ROW     8   COL     7   RATE   -100.0000    
 BOUNDARY    113   LAYER   1   ROW     8   COL     8   RATE   -100.0000    
 BOUNDARY    114   LAYER   1   ROW     8   COL     9   RATE   -100.0000    
 BOUNDARY    115   LAYER   1   ROW     8   COL    10   RATE   -100.0000    
 BOUNDARY    116   LAYER   1   ROW     8   COL    11   RATE   -100.0000    
 BOUNDARY    117   LAYER   1   ROW     8   COL    12   RATE    -28.0019    
 BOUNDARY    118   LAYER   1   ROW     8   COL    13   RATE    -3.78373    
 BOUNDARY    119   LAYER   1   ROW     8   COL    14   RATE     0.00000    
 BOUNDARY    120   LAYER   1   ROW     8   COL    15   RATE     0.00000    
 BOUNDARY    121   LAYER   1   ROW     9   COL     1   RATE    -19.7220    
 BOUNDARY    122   LAYER   1   ROW     9   COL     2   RATE    -65.1459    
 BOUNDARY    123   LAYER   1   ROW     9   COL     3   RATE   -100.0000    
 BOUNDARY    124   LAYER   1   ROW     9   COL     4   RATE   -100.0000    
 BOUNDARY    125   LAYER   1   ROW     9   COL     5   RATE   -100.0000    
 BOUNDARY    126   LAYER   1   ROW     9   COL     6   RATE   -100.0000    
 BOUNDARY    127   LAYER   1   ROW     9   COL     7   RATE   -100.0000    
 BOUNDARY    128   LAYER   1   ROW     9   COL     8   RATE   -100.0000    
 BOUNDARY    129   LAYER   1   ROW     9   COL     9   RATE   -100.0000    
 BOUNDARY    130   LAYER   1   ROW     9   COL    10   RATE   -100.0000    
 BOUNDARY    131   LAYER   1   ROW     9   COL    11   RATE   -100.0000    
 BOUNDARY    132   LAYER   1   ROW     9   COL    12   RATE    -29.1166    
 BOUNDARY    133   LAYER   1   ROW     9   COL    13   RATE    -4.62652    
 BOUNDARY    134   LAYER   1   ROW     9   COL    14   RATE     0.00000    
 BOUNDARY    135   LAYER   1   ROW     9   COL    15   RATE     0.00000    
 BOUNDARY    136   LAYER   1   ROW    10   COL     1   RATE    -73.3530    
 BOUNDARY    137   LAYER   1   ROW    10   COL     2   RATE   -100.0000    
 BOUNDARY    138   LAYER   1   ROW    10   COL     3   RATE   -100.0000    
 BOUNDARY    139   LAYER   1   ROW    10   COL     4   RATE   -100.0000    
 BOUNDARY    140   LAYER   1   ROW    10   COL     5   RATE   -100.0000    
 BOUNDARY    141   LAYER   1   ROW    10   COL     6   RATE   -100.0000    
 BOUNDARY    142   LAYER   1   ROW    10   COL     7   RATE   -100.0000    
 BOUNDARY    143   LAYER   1   ROW    10   COL     8   RATE   -100.0000    
 BOUNDARY    144   LAYER   1   ROW    10   COL     9   RATE   -100.0000    
 BOUNDARY    145   LAYER   1   ROW    10   COL    10   RATE   -100.0000    
 BOUNDARY    146   LAYER   1   ROW    10   COL    11   RATE   -100.0000    
 BOUNDARY    147   LAYER   1   ROW    10   COL    12   RATE    -29.9203    
 BOUNDARY    148   LAYER   1   ROW    10   COL    13   RATE    -5.16433    
 BOUNDARY    149   LAYER   1   ROW    10   COL    14   RATE     0.00000    
 BOUNDARY    150   LAYER   1   ROW    10   COL    15   RATE     0.00000    

 HEAD WILL BE SAVED ON UNIT 1017 AT END OF TIME STEP    6, STRESS PERIOD    4
WEL   no.    1 value from time series:   0.0000     for time:  66.00     to  67.00    
WEL   no.    2 value from time series:   0.0000     for time:  66.00     to  67.00    
RIV   no.    1 value from time series:   101.00     for time:  66.00     to  67.00    
RIV   no.    2 value from time series:   101.00     for time:  66.00     to  67.00    
RIV   no.    3 value from time series:   111.50     for time:  66.00     to  67.00    
RIV   no.    4 value from time series:   111.50     for time:  66.00     to  67.00    
RIV   no.    5 value from time series:   115.10     for time:  66.00     to  67.00    
RIV   no.    6 value from time series:   115.10     for time:  66.00     to  67.00    
RIV   no.    7 value from time series:   104.00     for time:  66.00     to  67.00    
RIV   no.    8 value from time series:   104.00     for time:  66.00     to  67.00    
RIV   no.    9 value from time series:   113.50     for time:  66.00     to  67.00    
RIV   no.   10 value from time series:   113.50     for time:  66.00     to  67.00    
WEL   no.    1 value from time series:   0.0000     for time:  66.00     to  67.00    
WEL   no.    2 value from time series:   0.0000     for time:  66.00     to  67.00    
RIV   no.    1 value from time series:   101.00     for time:  66.00     to  67.00    
RIV   no.    2 value from time series:   101.00     for time:  66.00     to  67.00    
RIV   no.    3 value from time series:   111.50     for time:  66.00     to  67.00    
RIV   no.    4 value from time series:   111.50     for time:  66.00     to  67.00    
RIV   no.    5 value from time series:   115.10     for time:  66.00     to  67.00    
RIV   no.    6 value from time series:   115.10     for time:  66.00     to  67.00    
RIV   no.    7 value from time series:   104.00     for time:  66.00     to  67.00    
RIV   no.    8 value from time series:   104.00     for time:  66.00     to  67.00    
RIV   no.    9 value from time series:   113.50     for time:  66.00     to  67.00    
RIV   no.   10 value from time series:   113.50     for time:  66.00     to  67.00    

 OUTPUT CONTROL FOR STRESS PERIOD    4   TIME STEP    7
    SAVE BUDGET
    SAVE HEAD
    SAVE HEAD FOR ALL LAYERS
 UBDSV1 SAVING          STORAGE ON UNIT   1016 AT TIME STEP      7, STRESS PERIOD      4
 UBDSV1 SAVING FLOW RIGHT FACE  ON UNIT   1016 AT TIME STEP      7, STRESS PERIOD      4
 UBDSV1 SAVING FLOW FRONT FACE  ON UNIT   1016 AT TIME STEP      7, STRESS PERIOD      4
 UBDSV1 SAVING FLOW LOWER FACE  ON UNIT   1016 AT TIME STEP      7, STRESS PERIOD      4
 UBDSV4 SAVING WELLS NEAR RIVER ON UNIT   1016 AT TIME STEP      7, STRESS PERIOD      4

 WELLS NEAR RIVER   PERIOD  4   STEP  7
 BOUNDARY      1   LAYER   2   ROW     8   COL     4   RATE     0.00000      WELL_2
 BOUNDARY      2   LAYER   2   ROW     3   COL     4   RATE     0.00000      WELL_1
 UBDSV4 SAVING RIVER            ON UNIT   1016 AT TIME STEP      7, STRESS PERIOD      4

 RIVER              PERIOD  4   STEP  7
 BOUNDARY      1   LAYER   1   ROW     1   COL    15   RATE    -4812.25    
 BOUNDARY      2   LAYER   1   ROW     2   COL    15   RATE    -5931.40      RIV2
 BOUNDARY      3   LAYER   1   ROW     3   COL    15   RATE    -2190.41      RIV3
 BOUNDARY      4   LAYER   1   ROW     4   COL    15   RATE    -3651.31    
 BOUNDARY      5   LAYER   1   ROW     5   COL    15   RATE    -2291.94    
 BOUNDARY      6   LAYER   1   ROW     6   COL    15   RATE    -1642.14    
 BOUNDARY      7   LAYER   1   ROW     7   COL    15   RATE    -6122.96      RIVX
 BOUNDARY      8   LAYER   1   ROW     8   COL    15   RATE    -5965.93      RIVX
 BOUNDARY      9   LAYER   1   ROW     9   COL    15   RATE    -2169.32      RIVX
 BOUNDARY     10   LAYER   1   ROW    10   COL    15   RATE    -3069.06    

 GHB LAKES          PERIOD  4   STEP  7
 BOUNDARY      1   LAYER   1   ROW     3   COL     1   RATE    -14566.7    
 BOUNDARY      2   LAYER   1   ROW     7   COL     1   RATE    -1915.21      GHB2_UPPER
 BOUNDARY      3   LAYER   1   ROW     7   COL     1   RATE    -13261.6      GHB2_LOWER
 UBDSV4 SAVING RECHARGE         ON UNIT   1016 AT TIME STEP      7, STRESS PERIOD      4

 RECHARGE           PERIOD  4   STEP  7
 BOUNDARY      1   LAYER   1   ROW     1   COL     1   RATE     646.667    
 BOUNDARY      2   LAYER   1   ROW     1   COL     2   RATE     646.667    
 BOUNDARY      3   LAYER   1   ROW     1   COL     3   RATE     646.667    
 BOUNDARY      4   LAYER   1   ROW     1   COL     4   RATE     646.667    
 BOUNDARY      5   LAYER   1   ROW     1   COL     5   RATE     646.667    
 BOUNDARY      6   LAYER   1   ROW     1   COL     6   RATE     646.667    
 BOUNDARY      7   LAYER   1   ROW     1   COL     7   RATE     646.667    
 BOUNDARY      8   LAYER   1   ROW     1   COL     8   RATE     646.667    
 BOUNDARY      9   LAYER   1   ROW     1   COL     9   RATE     646.667    
 BOUNDARY     10   LAYER   1   ROW     1   COL    10   RATE     646.667    
 BOUNDARY     11   LAYER   1   ROW     1   COL    11   RATE     646.667    
 BOUNDARY     12   LAYER   1   ROW     1   COL    12   RATE     646.667    
 BOUNDARY     13   LAYER   1   ROW     1   COL    13   RATE     646.667    
 BOUNDARY     14   LAYER   1   ROW     1   COL    14   RATE     646.667    
 BOUNDARY     15   LAYER   1   ROW     1   COL    15   RATE     646.667    
 BOUNDARY     16   LAYER   1   ROW     2   COL     1   RATE     646.667    
 BOUNDARY     17   LAYER   1   ROW     2   COL     2   RATE     646.667    
 BOUNDARY     18   LAYER   1   ROW     2   COL     3   RATE     646.667    
 BOUNDARY     19   LAYER   1   ROW     2   COL     4   RATE     646.667    
 BOUNDARY     20   LAYER   1   ROW     2   COL     5   RATE     646.667    
 BOUNDARY     21   LAYER   1   ROW     2   COL     6   RATE     646.667    
 BOUNDARY     22   LAYER   1   ROW     2   COL     7   RATE     646.667    
 BOUNDARY     23   LAYER   1   ROW     2   COL     8   RATE     646.667    
 BOUNDARY     24   LAYER   1   ROW     2   COL     9   RATE     646.667    
 BOUNDARY     25   LAYER   1   ROW     2   COL    10   RATE     646.667    
 BOUNDARY     26   LAYER   1   ROW     2   COL    11   RATE     646.667    
 BOUNDARY     27   LAYER   1   ROW     2   COL    12   RATE     646.667    
 BOUNDARY     28   LAYER   1   ROW     2   COL    13   RATE     646.667    
 BOUNDARY     29   LAYER   1   ROW     2   COL    14   RATE     646.667    
 BOUNDARY     30   LAYER   1   ROW     2   COL    15   RATE     646.667    
 BOUNDARY     31   LAYER   1   ROW     3   COL     1   RATE     646.667    
 BOUNDARY     32   LAYER   1   ROW     3   COL     2   RATE     646.667    
 BOUNDARY     33   LAYER   1   ROW     3   COL     3   RATE     646.667    
 BOUNDARY     34   LAYER   1   ROW     3   COL     4   RATE     646.667    
 BOUNDARY     35   LAYER   1   ROW     3   COL     5   RATE     646.667    
 BOUNDARY     36   LAYER   1   ROW     3   COL     6   RATE     646.667    
 BOUNDARY     37   LAYER   1   ROW     3   COL     7   RATE     646.667    
 BOUNDARY     38   LAYER   1   ROW     3   COL     8   RATE     646.667    
 BOUNDARY     39   LAYER   1   ROW     3   COL     9   RATE     646.667    
 BOUNDARY     40   LAYER   1   ROW     3   COL    10   RATE     646.667    
 BOUNDARY     41   LAYER   1   ROW     3   COL    11   RATE     646.667    
 BOUNDARY     42   LAYER   1   ROW     3   COL    12   RATE     646.667    
 BOUNDARY     43   LAYER   1   ROW     3   COL    13   RATE     646.667    
 BOUNDARY     44   LAYER   1   ROW     3   COL    14   RATE     646.667    
 BOUNDARY     45   LAYER   1   ROW     3   COL    15   RATE     646.667    
 BOUNDARY     46   LAYER   1   ROW     4   COL     1   RATE     646.667    
 BOUNDARY     47   LAYER   1   ROW     4   COL     2   RATE     646.667    
 BOUNDARY     48   LAYER   1   ROW     4   COL     3   RATE     646.667    
 BOUNDARY     49   LAYER   1   ROW     4   COL     4   RATE     646.667    
 BOUNDARY     50   LAYER   1   ROW     4   COL     5   RATE     646.667    
 BOUNDARY     51   LAYER   1   ROW     4   COL     6   RATE     646.667    
 BOUNDARY     52   LAYER   1   ROW     4   COL     7   RATE     646.667    
 BOUNDARY     53   LAYER   1   ROW     4   COL     8   RATE     646.667    
 BOUNDARY     54   LAYER   1   ROW     4   COL     9   RATE     646.667    
 BOUNDARY     55   LAYER   1   ROW     4   COL    10   RATE     646.667    
 BOUNDARY     56   LAYER   1   ROW     4   COL    11   RATE     646.667    
 BOUNDARY     57   LAYER   1   ROW     4   COL    12   RATE     646.667    
 BOUNDARY     58   LAYER   1   ROW     4   COL    13   RATE     646.667    
 BOUNDARY     59   LAYER   1   ROW     4   COL    14   RATE     646.667    
 BOUNDARY     60   LAYER   1   ROW     4   COL    15   RATE     646.667    
 BOUNDARY     61   LAYER   1   ROW     5   COL     1   RATE     646.667    
 BOUNDARY     62   LAYER   1   ROW     5   COL     2   RATE     646.667    
 BOUNDARY     63   LAYER   1   ROW     5   COL     3   RATE     646.667    
 BOUNDARY     64   LAYER   1   ROW     5   COL     4   RATE     646.667    
 BOUNDARY     65   LAYER   1   ROW     5   COL     5   RATE     646.667    
 BOUNDARY     66   LAYER   1   ROW     5   COL     6   RATE     646.667    
 BOUNDARY     67   LAYER   1   ROW     5   COL     7   RATE     646.667    
 BOUNDARY     68   LAYER   1   ROW     5   COL     8   RATE     646.667    
 BOUNDARY     69   LAYER   1   ROW     5   COL     9   RATE     646.667    
 BOUNDARY     70   LAYER   1   ROW     5   COL    10   RATE     646.667    
 BOUNDARY     71   LAYER   1   ROW     5   COL    11   RATE     646.667    
 BOUNDARY     72   LAYER   1   ROW     5   COL    12   RATE     646.667    
 BOUNDARY     73   LAYER   1   ROW     5   COL    13   RATE     646.667    
 BOUNDARY     74   LAYER   1   ROW     5   COL    14   RATE     646.667    
 BOUNDARY     75   LAYER   1   ROW     5   COL    15   RATE     646.667    
 BOUNDARY     76   LAYER   1   ROW     6   COL     1   RATE     646.667    
 BOUNDARY     77   LAYER   1   ROW     6   COL     2   RATE     646.667    
 BOUNDARY     78   LAYER   1   ROW     6   COL     3   RATE     646.667    
 BOUNDARY     79   LAYER   1   ROW     6   COL     4   RATE     646.667    
 BOUNDARY     80   LAYER   1   ROW     6   COL     5   RATE     646.667    
 BOUNDARY     81   LAYER   1   ROW     6   COL     6   RATE     646.667    
 BOUNDARY     82   LAYER   1   ROW     6   COL     7   RATE     646.667    
 BOUNDARY     83   LAYER   1   ROW     6   COL     8   RATE     646.667    
 BOUNDARY     84   LAYER   1   ROW     6   COL     9   RATE     646.667    
 BOUNDARY     85   LAYER   1   ROW     6   COL    10   RATE     646.667    
 BOUNDARY     86   LAYER   1   ROW     6   COL    11   RATE     646.667    
 BOUNDARY     87   LAYER   1   ROW     6   COL    12   RATE     646.667    
 BOUNDARY     88   LAYER   1   ROW     6   COL    13   RATE     646.667    
 BOUNDARY     89   LAYER   1   ROW     6   COL    14   RATE     646.667    
 BOUNDARY     90   LAYER   1   ROW     6   COL    15   RATE     646.667    
 BOUNDARY     91   LAYER   1   ROW     7   COL     1   RATE     646.667    
 BOUNDARY     92   LAYER   1   ROW     7   COL     2   RATE     646.667    
 BOUNDARY     93   LAYER   1   ROW     7   COL     3   RATE     646.667    
 BOUNDARY     94   LAYER   1   ROW     7   COL     4   RATE     646.667    
 BOUNDARY     95   LAYER   1   ROW     7   COL     5   RATE     646.667    
 BOUNDARY     96   LAYER   1   ROW     7   COL     6   RATE     646.667    
 BOUNDARY     97   LAYER   1   ROW     7   COL     7   RATE     646.667    
 BOUNDARY     98   LAYER   1   ROW     7   COL     8   RATE     646.667    
 BOUNDARY     99   LAYER   1   ROW     7   COL     9   RATE     646.667    
 BOUNDARY    100   LAYER   1   ROW     7   COL    10   RATE     646.667    
 BOUNDARY    101   LAYER   1   ROW     7   COL    11   RATE     646.667    
 BOUNDARY    102   LAYER   1   ROW     7   COL    12   RATE     646.667    
 BOUNDARY    103   LAYER   1   ROW     7   COL    13   RATE     646.667    
 BOUNDARY    104   LAYER   1   ROW     7   COL    14   RATE     646.667    
 BOUNDARY    105   LAYER   1   ROW     7   COL    15   RATE     646.667    
 BOUNDARY    106   LAYER   1   ROW     8   COL     1   RATE     646.667    
 BOUNDARY    107   LAYER   1   ROW     8   COL     2   RATE     646.667    
 BOUNDARY    108   LAYER   1   ROW     8   COL     3   RATE     646.667    
 BOUNDARY    109   LAYER   1   ROW     8   COL     4   RATE     646.667    
 BOUNDARY    110   LAYER   1   ROW     8   COL     5   RATE     646.667    
 BOUNDARY    111   LAYER   1   ROW     8   COL     6   RATE     646.667    
 BOUNDARY    112   LAYER   1   ROW     8   COL     7   RATE     646.667    
 BOUNDARY    113   LAYER   1   ROW     8   COL     8   RATE     646.667    
 BOUNDARY    114   LAYER   1   ROW     8   COL     9   RATE     646.667    
 BOUNDARY    115   LAYER   1   ROW     8   COL    10   RATE     646.667    
 BOUNDARY    116   LAYER   1   ROW     8   COL    11   RATE     646.667    
 BOUNDARY    117   LAYER   1   ROW     8   COL    12   RATE     646.667    
 BOUNDARY    118   LAYER   1   ROW     8   COL    13   RATE     646.667    
 BOUNDARY    119   LAYER   1   ROW     8   COL    14   RATE     646.667    
 BOUNDARY    120   LAYER   1   ROW     8   COL    15   RATE     646.667    
 BOUNDARY    121   LAYER   1   ROW     9   COL     1   RATE     646.667    
 BOUNDARY    122   LAYER   1   ROW     9   COL     2   RATE     646.667    
 BOUNDARY    123   LAYER   1   ROW     9   COL     3   RATE     646.667    
 BOUNDARY    124   LAYER   1   ROW     9   COL     4   RATE     646.667    
 BOUNDARY    125   LAYER   1   ROW     9   COL     5   RATE     646.667    
 BOUNDARY    126   LAYER   1   ROW     9   COL     6   RATE     646.667    
 BOUNDARY    127   LAYER   1   ROW     9   COL     7   RATE     646.667    
 BOUNDARY    128   LAYER   1   ROW     9   COL     8   RATE     646.667    
 BOUNDARY    129   LAYER   1   ROW     9   COL     9   RATE     646.667    
 BOUNDARY    130   LAYER   1   ROW     9   COL    10   RATE     646.667    
 BOUNDARY    131   LAYER   1   ROW     9   COL    11   RATE     646.667    
 BOUNDARY    132   LAYER   1   ROW     9   COL    12   RATE     646.667    
 BOUNDARY    133   LAYER   1   ROW     9   COL    13   RATE     646.667    
 BOUNDARY    134   LAYER   1   ROW     9   COL    14   RATE     646.667    
 BOUNDARY    135   LAYER   1   ROW     9   COL    15   RATE     646.667    
 BOUNDARY    136   LAYER   1   ROW    10   COL     1   RATE     646.667    
 BOUNDARY    137   LAYER   1   ROW    10   COL     2   RATE     646.667    
 BOUNDARY    138   LAYER   1   ROW    10   COL     3   RATE     646.667    
 BOUNDARY    139   LAYER   1   ROW    10   COL     4   RATE     646.667    
 BOUNDARY    140   LAYER   1   ROW    10   COL     5   RATE     646.667    
 BOUNDARY    141   LAYER   1   ROW    10   COL     6   RATE     646.667    
 BOUNDARY    142   LAYER   1   ROW    10   COL     7   RATE     646.667    
 BOUNDARY    143   LAYER   1   ROW    10   COL     8   RATE     646.667    
 BOUNDARY    144   LAYER   1   ROW    10   COL     9   RATE     646.667    
 BOUNDARY    145   LAYER   1   ROW    10   COL    10   RATE     646.667    
 BOUNDARY    146   LAYER   1   ROW    10   COL    11   RATE     646.667    
 BOUNDARY    147   LAYER   1   ROW    10   COL    12   RATE     646.667    
 BOUNDARY    148   LAYER   1   ROW    10   COL    13   RATE     646.667    
 BOUNDARY    149   LAYER   1   ROW    10   COL    14   RATE     646.667    
 BOUNDARY    150   LAYER   1   ROW    10   COL    15   RATE     646.667    
 UBDSV4 SAVING ET SEGS          ON UNIT   1016 AT TIME STEP      7, STRESS PERIOD      4

 ET SEGS            PERIOD  4   STEP  7
 BOUNDARY      1   LAYER   1   ROW     1   COL     1   RATE    -2.42534    
 BOUNDARY      2   LAYER   1   ROW     1   COL     2   RATE    -9.27732    
 BOUNDARY      3   LAYER   1   ROW     1   COL     3   RATE    -53.7265    
 BOUNDARY      4   LAYER   1   ROW     1   COL     4   RATE   -100.0000    
 BOUNDARY      5   LAYER   1   ROW     1   COL     5   RATE   -100.0000    
 BOUNDARY      6   LAYER   1   ROW     1   COL     6   RATE   -100.0000    
 BOUNDARY      7   LAYER   1   ROW     1   COL     7   RATE   -100.0000    
 BOUNDARY      8   LAYER   1   ROW     1   COL     8   RATE   -100.0000    
 BOUNDARY      9   LAYER   1   ROW     1   COL     9   RATE   -100.0000    
 BOUNDARY     10   LAYER   1   ROW     1   COL    10   RATE   -100.0000    
 BOUNDARY     11   LAYER   1   ROW     1   COL    11   RATE   -100.0000    
 BOUNDARY     12   LAYER   1   ROW     1   COL    12   RATE    -17.7535    
 BOUNDARY     13   LAYER   1   ROW     1   COL    13   RATE     0.00000    
 BOUNDARY     14   LAYER   1   ROW     1   COL    14   RATE     0.00000    
 BOUNDARY     15   LAYER   1   ROW     1   COL    15   RATE     0.00000    
 BOUNDARY     16   LAYER   1   ROW     2   COL     1   RATE     0.00000    
 BOUNDARY     17   LAYER   1   ROW     2   COL     2   RATE    -4.75007    
 BOUNDARY     18   LAYER   1   ROW     2   COL     3   RATE    -29.0546    
 BOUNDARY     19   LAYER   1   ROW     2   COL     4   RATE   -100.0000    
 BOUNDARY     20   LAYER   1   ROW     2   COL     5   RATE   -100.0000    
 BOUNDARY     21   LAYER   1   ROW     2   COL     6   RATE   -100.0000    
 BOUNDARY     22   LAYER   1   ROW     2   COL     7   RATE   -100.0000    
 BOUNDARY     23   LAYER   1   ROW     2   COL     8   RATE   -100.0000    
 BOUNDARY     24   LAYER   1   ROW     2   COL     9   RATE   -100.0000    
 BOUNDARY     25   LAYER   1   ROW     2   COL    10   RATE   -100.0000    
 BOUNDARY     26   LAYER   1   ROW     2   COL    11   RATE   -100.0000    
 BOUNDARY     27   LAYER   1   ROW     2   COL    12   RATE    -19.4937    
 BOUNDARY     28   LAYER   1   ROW     2   COL    13   RATE   -0.406183    
 BOUNDARY     29   LAYER   1   ROW     2   COL    14   RATE     0.00000    
 BOUNDARY     30   LAYER   1   ROW     2   COL    15   RATE     0.00000    
 BOUNDARY     31   LAYER   1   ROW     3   COL     1   RATE     0.00000    
 BOUNDARY     32   LAYER   1   ROW     3   COL     2   RATE     0.00000    
 BOUNDARY     33   LAYER   1   ROW     3   COL     3   RATE    -23.1696    
 BOUNDARY     34   LAYER   1   ROW     3   COL     4   RATE   -100.0000    
 BOUNDARY     35   LAYER   1   ROW     3   COL     5   RATE   -100.0000    
 BOUNDARY     36   LAYER   1   ROW     3   COL     6   RATE   -100.0000    
 BOUNDARY     37   LAYER   1   ROW     3   COL     7   RATE   -100.0000    
 BOUNDARY     38   LAYER   1   ROW     3   COL     8   RATE   -100.0000    
 BOUNDARY     39   LAYER   1   ROW     3   COL     9   RATE   -100.0000    
 BOUNDARY     40   LAYER   1   ROW     3   COL    10   RATE   -100.0000    
 BOUNDARY     41   LAYER   1   ROW     3   COL    11   RATE   -100.0000    
 BOUNDARY     42   LAYER   1   ROW     3   COL    12   RATE    -22.4287    
 BOUNDARY     43   LAYER   1   ROW     3   COL    13   RATE    -2.19762    
 BOUNDARY     44   LAYER   1   ROW     3   COL    14   RATE     0.00000    
 BOUNDARY     45   LAYER   1   ROW     3   COL    15   RATE     0.00000    
 BOUNDARY     46   LAYER   1   ROW     4   COL     1   RATE     0.00000    
 BOUNDARY     47   LAYER   1   ROW     4   COL     2   RATE    -3.24616    
 BOUNDARY     48   LAYER   1   ROW     4   COL     3   RATE    -27.0700    
 BOUNDARY     49   LAYER   1   ROW     4   COL     4   RATE   -100.0000    
 BOUNDARY     50   LAYER   1   ROW     4   COL     5   RATE   -100.0000    
 BOUNDARY     51   LAYER   1   ROW     4   COL     6   RATE   -100.0000    
 BOUNDARY     52   LAYER   1   ROW     4   COL     7   RATE   -100.0000    
 BOUNDARY     53   LAYER   1   ROW     4   COL     8   RATE   -100.0000    
 BOUNDARY     54   LAYER   1   ROW     4   COL     9   RATE   -100.0000    
 BOUNDARY     55   LAYER   1   ROW     4   COL    10   RATE   -100.0000    
 BOUNDARY     56   LAYER   1   ROW     4   COL    11   RATE   -100.0000    
 BOUNDARY     57   LAYER   1   ROW     4   COL    12   RATE    -25.2221    
 BOUNDARY     58   LAYER   1   ROW     4   COL    13   RATE    -3.65308    
 BOUNDARY     59   LAYER   1   ROW     4   COL    14   RATE     0.00000    
 BOUNDARY     60   LAYER   1   ROW     4   COL    15   RATE     0.00000    
 BOUNDARY     61   LAYER   1   ROW     5   COL     1   RATE     0.00000    
 BOUNDARY     62   LAYER   1   ROW     5   COL     2   RATE    -6.22286    
 BOUNDARY     63   LAYER   1   ROW     5   COL     3   RATE    -35.5192    
 BOUNDARY     64   LAYER   1   ROW     5   COL     4   RATE   -100.0000    
 BOUNDARY     65   LAYER   1   ROW     5   COL     5   RATE   -100.0000    
 BOUNDARY     66   LAYER   1   ROW     5   COL     6   RATE   -100.0000    
 BOUNDARY     67   LAYER   1   ROW     5   COL     7   RATE   -100.0000    
 BOUNDARY     68   LAYER   1   ROW     5   COL     8   RATE   -100.0000    
 BOUNDARY     69   LAYER   1   ROW     5   COL     9   RATE   -100.0000    
 BOUNDARY     70   LAYER   1   ROW     5   COL    10   RATE   -100.0000    
 BOUNDARY     71   LAYER   1   ROW     5   COL    11   RATE   -100.0000    
 BOUNDARY     72   LAYER   1   ROW     5   COL    12   RATE    -27.1476    
 BOUNDARY     73   LAYER   1   ROW     5   COL    13   RATE    -4.54544    
 BOUNDARY     74   LAYER   1   ROW     5   COL    14   RATE     0.00000    
 BOUNDARY     75   LAYER   1   ROW     5   COL    15   RATE     0.00000    
 BOUNDARY     76   LAYER   1   ROW     6   COL     1   RATE     0.00000    
 BOUNDARY     77   LAYER   1   ROW     6   COL     2   RATE    -4.78748    
 BOUNDARY     78   LAYER   1   ROW     6   COL     3   RATE    -39.3477    
 BOUNDARY     79   LAYER   1   ROW     6   COL     4   RATE   -100.0000    
 BOUNDARY     80   LAYER   1   ROW     6   COL     5   RATE   -100.0000    
 BOUNDARY     81   LAYER   1   ROW     6   COL     6   RATE   -100.0000    
 BOUNDARY     82   LAYER   1   ROW     6   COL     7   RATE   -100.0000    
 BOUNDARY     83   LAYER   1   ROW     6   COL     8   RATE   -100.0000    
 BOUNDARY     84   LAYER   1   ROW     6   COL     9   RATE   -100.0000    
 BOUNDARY     85   LAYER   1   ROW     6   COL    10   RATE   -100.0000    
 BOUNDARY     86   LAYER   1   ROW     6   COL    11   RATE   -100.0000    
 BOUNDARY     87   LAYER   1   ROW     6   COL    12   RATE    -27.7940    
 BOUNDARY     88   LAYER   1   ROW     6   COL    13   RATE    -4.49994    
 BOUNDARY     89   LAYER   1   ROW     6   COL    14   RATE     0.00000    
 BOUNDARY     90   LAYER   1   ROW     6   COL    15   RATE     0.00000    
 BOUNDARY     91   LAYER   1   ROW     7   COL     1   RATE     0.00000    
 BOUNDARY     92   LAYER   1   ROW     7   COL     2   RATE    -1.27297    
 BOUNDARY     93   LAYER   1   ROW     7   COL     3   RATE    -46.1931    
 BOUNDARY     94   LAYER   1   ROW     7   COL     4   RATE   -100.0000    
 BOUNDARY     95   LAYER   1   ROW     7   COL     5   RATE   -100.0000    
 BOUNDARY     96   LAYER   1   ROW     7   COL     6   RATE   -100.0000    
 BOUNDARY     97   LAYER   1   ROW     7   COL     7   RATE   -100.0000    
 BOUNDARY     98   LAYER   1   ROW     7   COL     8   RATE   -100.0000    
 BOUNDARY     99   LAYER   1   ROW     7   COL     9   RATE   -100.0000    
 BOUNDARY    100   LAYER   1   ROW     7   COL    10   RATE   -100.0000    
 BOUNDARY    101   LAYER   1   ROW     7   COL    11   RATE   -100.0000    
 BOUNDARY    102   LAYER   1   ROW     7   COL    12   RATE    -27.6401    
 BOUNDARY    103   LAYER   1   ROW     7   COL    13   RATE    -3.77682    
 BOUNDARY    104   LAYER   1   ROW     7   COL    14   RATE     0.00000    
 BOUNDARY    105   LAYER   1   ROW     7   COL    15   RATE     0.00000    
 BOUNDARY    106   LAYER   1   ROW     8   COL     1   RATE     0.00000    
 BOUNDARY    107   LAYER   1   ROW     8   COL     2   RATE    -12.1704    
 BOUNDARY    108   LAYER   1   ROW     8   COL     3   RATE   -100.0000    
 BOUNDARY    109   LAYER   1   ROW     8   COL     4   RATE   -100.0000    
 BOUNDARY    110   LAYER   1   ROW     8   COL     5   RATE   -100.0000    
 BOUNDARY    111   LAYER   1   ROW     8   COL     6   RATE   -100.0000    
 BOUNDARY    112   LAYER   1   ROW     8   COL     7   RATE   -100.0000    
 BOUNDARY    113   LAYER   1   ROW     8   COL     8   RATE   -100.0000    
 BOUNDARY    114   LAYER   1   ROW     8   COL     9   RATE   -100.0000    
 BOUNDARY    115   LAYER   1   ROW     8   COL    10   RATE   -100.0000    
 BOUNDARY    116   LAYER   1   ROW     8   COL    11   RATE   -100.0000    
 BOUNDARY    117   LAYER   1   ROW     8   COL    12   RATE    -28.0409    
 BOUNDARY    118   LAYER   1   ROW     8   COL    13   RATE    -3.79550    
 BOUNDARY    119   LAYER   1   ROW     8   COL    14   RATE     0.00000    
 BOUNDARY    120   LAYER   1   ROW     8   COL    15   RATE     0.00000    
 BOUNDARY    121   LAYER   1   ROW     9   COL     1   RATE    -19.7589    
 BOUNDARY    122   LAYER   1   ROW     9   COL     2   RATE    -65.3407    
 BOUNDARY    123   LAYER   1   ROW     9   COL     3   RATE   -100.0000    
 BOUNDARY    124   LAYER   1   ROW     9   COL     4   RATE   -100.0000    
 BOUNDARY    125   LAYER   1   ROW     9   COL     5   RATE   -100.0000    
 BOUNDARY    126   LAYER   1   ROW     9   COL     6   RATE   -100.0000    
 BOUNDARY    127   LAYER   1   ROW     9   COL     7   RATE   -100.0000    
 BOUNDARY    128   LAYER   1   ROW     9   COL     8   RATE   -100.0000    
 BOUNDARY    129   LAYER   1   ROW     9   COL     9   RATE   -100.0000    
 BOUNDARY    130   LAYER   1   ROW     9   COL    10   RATE   -100.0000    
 BOUNDARY    131   LAYER   1   ROW     9   COL    11   RATE   -100.0000    
 BOUNDARY    132   LAYER   1   ROW     9   COL    12   RATE    -29.1563    
 BOUNDARY    133   LAYER   1   ROW     9   COL    13   RATE    -4.63891    
 BOUNDARY    134   LAYER   1   ROW     9   COL    14   RATE     0.00000    
 BOUNDARY    135   LAYER   1   ROW     9   COL    15   RATE     0.00000    
 BOUNDARY    136   LAYER   1   ROW    10   COL     1   RATE    -73.5475    
 BOUNDARY    137   LAYER   1   ROW    10   COL     2   RATE   -100.0000    
 BOUNDARY    138   LAYER   1   ROW    10   COL     3   RATE   -100.0000    
 BOUNDARY    139   LAYER   1   ROW    10   COL     4   RATE   -100.0000    
 BOUNDARY    140   LAYER   1   ROW    10   COL     5   RATE   -100.0000    
 BOUNDARY    141   LAYER   1   ROW    10   COL     6   RATE   -100.0000    
 BOUNDARY    142   LAYER   1   ROW    10   COL     7   RATE   -100.0000    
 BOUNDARY    143   LAYER   1   ROW    10   COL     8   RATE   -100.0000    
 BOUNDARY    144   LAYER   1   ROW    10   COL     9   RATE   -100.0000    
 BOUNDARY    145   LAYER   1   ROW    10   COL    10   RATE   -100.0000    
 BOUNDARY    146   LAYER   1   ROW    10   COL    11   RATE   -100.0000    
 BOUNDARY    147   LAYER   1   ROW    10   COL    12   RATE    -29.9604    
 BOUNDARY    148   LAYER   1   ROW    10   COL    13   RATE    -5.17708    
 BOUNDARY    149   LAYER   1   ROW    10   COL    14   RATE     0.00000    
 BOUNDARY    150   LAYER   1   ROW    10   COL    15   RATE     0.00000    

 HEAD WILL BE SAVED ON UNIT 1017 AT END OF TIME STEP    7, STRESS PERIOD    4
WEL   no.    1 value from time series:   0.0000     for time:  67.00     to  68.00    
WEL   no.    2 value from time series:   0.0000     for time:  67.00     to  68.00    
RIV   no.    1 value from time series:   101.00     for time:  67.00     to  68.00    
RIV   no.    2 value from time series:   101.00     for time:  67.00     to  68.00    
RIV   no.    3 value from time series:   111.50     for time:  67.00     to  68.00    
RIV   no.    4 value from time series:   111.50     for time:  67.00     to  68.00    
RIV   no.    5 value from time series:   115.10     for time:  67.00     to  68.00    
RIV   no.    6 value from time series:   115.10     for time:  67.00     to  68.00    
RIV   no.    7 value from time series:   104.00     for time:  67.00     to  68.00    
RIV   no.    8 value from time series:   104.00     for time:  67.00     to  68.00    
RIV   no.    9 value from time series:   113.50     for time:  67.00     to  68.00    
RIV   no.   10 value from time series:   113.50     for time:  67.00     to  68.00    
WEL   no.    1 value from time series:   0.0000     for time:  67.00     to  68.00    
WEL   no.    2 value from time series:   0.0000     for time:  67.00     to  68.00    
RIV   no.    1 value from time series:   101.00     for time:  67.00     to  68.00    
RIV   no.    2 value from time series:   101.00     for time:  67.00     to  68.00    
RIV   no.    3 value from time series:   111.50     for time:  67.00     to  68.00    
RIV   no.    4 value from time series:   111.50     for time:  67.00     to  68.00    
RIV   no.    5 value from time series:   115.10     for time:  67.00     to  68.00    
RIV   no.    6 value from time series:   115.10     for time:  67.00     to  68.00    
RIV   no.    7 value from time series:   104.00     for time:  67.00     to  68.00    
RIV   no.    8 value from time series:   104.00     for time:  67.00     to  68.00    
RIV   no.    9 value from time series:   113.50     for time:  67.00     to  68.00    
RIV   no.   10 value from time series:   113.50     for time:  67.00     to  68.00    

 OUTPUT CONTROL FOR STRESS PERIOD    4   TIME STEP    8
    SAVE BUDGET
    SAVE HEAD
    SAVE HEAD FOR ALL LAYERS
 UBDSV1 SAVING          STORAGE ON UNIT   1016 AT TIME STEP      8, STRESS PERIOD      4
 UBDSV1 SAVING FLOW RIGHT FACE  ON UNIT   1016 AT TIME STEP      8, STRESS PERIOD      4
 UBDSV1 SAVING FLOW FRONT FACE  ON UNIT   1016 AT TIME STEP      8, STRESS PERIOD      4
 UBDSV1 SAVING FLOW LOWER FACE  ON UNIT   1016 AT TIME STEP      8, STRESS PERIOD      4
 UBDSV4 SAVING WELLS NEAR RIVER ON UNIT   1016 AT TIME STEP      8, STRESS PERIOD      4

 WELLS NEAR RIVER   PERIOD  4   STEP  8
 BOUNDARY      1   LAYER   2   ROW     8   COL     4   RATE     0.00000      WELL_2
 BOUNDARY      2   LAYER   2   ROW     3   COL     4   RATE     0.00000      WELL_1
 UBDSV4 SAVING RIVER            ON UNIT   1016 AT TIME STEP      8, STRESS PERIOD      4

 RIVER              PERIOD  4   STEP  8
 BOUNDARY      1   LAYER   1   ROW     1   COL    15   RATE    -4813.42    
 BOUNDARY      2   LAYER   1   ROW     2   COL    15   RATE    -5932.83      RIV2
 BOUNDARY      3   LAYER   1   ROW     3   COL    15   RATE    -2192.38      RIV3
 BOUNDARY      4   LAYER   1   ROW     4   COL    15   RATE    -3653.39    
 BOUNDARY      5   LAYER   1   ROW     5   COL    15   RATE    -2293.91    
 BOUNDARY      6   LAYER   1   ROW     6   COL    15   RATE    -1643.98    
 BOUNDARY      7   LAYER   1   ROW     7   COL    15   RATE    -6124.74      RIVX
 BOUNDARY      8   LAYER   1   ROW     8   COL    15   RATE    -5967.95      RIVX
 BOUNDARY      9   LAYER   1   ROW     9   COL    15   RATE    -2171.76      RIVX
 BOUNDARY     10   LAYER   1   ROW    10   COL    15   RATE    -3071.73    

 GHB LAKES          PERIOD  4   STEP  8
 BOUNDARY      1   LAYER   1   ROW     3   COL     1   RATE    -14571.1    
 BOUNDARY      2   LAYER   1   ROW     7   COL     1   RATE    -1918.76      GHB2_UPPER
 BOUNDARY      3   LAYER   1   ROW     7   COL     1   RATE    -13262.9      GHB2_LOWER
 UBDSV4 SAVING RECHARGE         ON UNIT   1016 AT TIME STEP      8, STRESS PERIOD      4

 RECHARGE           PERIOD  4   STEP  8
 BOUNDARY      1   LAYER   1   ROW     1   COL     1   RATE     650.000    
 BOUNDARY      2   LAYER   1   ROW     1   COL     2   RATE     650.000    
 BOUNDARY      3   LAYER   1   ROW     1   COL     3   RATE     650.000    
 BOUNDARY      4   LAYER   1   ROW     1   COL     4   RATE     650.000    
 BOUNDARY      5   LAYER   1   ROW     1   COL     5   RATE     650.000    
 BOUNDARY      6   LAYER   1   ROW     1   COL     6   RATE     650.000    
 BOUNDARY      7   LAYER   1   ROW     1   COL     7   RATE     650.000    
 BOUNDARY      8   LAYER   1   ROW     1   COL     8   RATE     650.000    
 BOUNDARY      9   LAYER   1   ROW     1   COL     9   RATE     650.000    
 BOUNDARY     10   LAYER   1   ROW     1   COL    10   RATE     650.000    
 BOUNDARY     11   LAYER   1   ROW     1   COL    11   RATE     650.000    
 BOUNDARY     12   LAYER   1   ROW     1   COL    12   RATE     650.000    
 BOUNDARY     13   LAYER   1   ROW     1   COL    13   RATE     650.000    
 BOUNDARY     14   LAYER   1   ROW     1   COL    14   RATE     650.000    
 BOUNDARY     15   LAYER   1   ROW     1   COL    15   RATE     650.000    
 BOUNDARY     16   LAYER   1   ROW     2   COL     1   RATE     650.000    
 BOUNDARY     17   LAYER   1   ROW     2   COL     2   RATE     650.000    
 BOUNDARY     18   LAYER   1   ROW     2   COL     3   RATE     650.000    
 BOUNDARY     19   LAYER   1   ROW     2   COL     4   RATE     650.000    
 BOUNDARY     20   LAYER   1   ROW     2   COL     5   RATE     650.000    
 BOUNDARY     21   LAYER   1   ROW     2   COL     6   RATE     650.000    
 BOUNDARY     22   LAYER   1   ROW     2   COL     7   RATE     650.000    
 BOUNDARY     23   LAYER   1   ROW     2   COL     8   RATE     650.000    
 BOUNDARY     24   LAYER   1   ROW     2   COL     9   RATE     650.000    
 BOUNDARY     25   LAYER   1   ROW     2   COL    10   RATE     650.000    
 BOUNDARY     26   LAYER   1   ROW     2   COL    11   RATE     650.000    
 BOUNDARY     27   LAYER   1   ROW     2   COL    12   RATE     650.000    
 BOUNDARY     28   LAYER   1   ROW     2   COL    13   RATE     650.000    
 BOUNDARY     29   LAYER   1   ROW     2   COL    14   RATE     650.000    
 BOUNDARY     30   LAYER   1   ROW     2   COL    15   RATE     650.000    
 BOUNDARY     31   LAYER   1   ROW     3   COL     1   RATE     650.000    
 BOUNDARY     32   LAYER   1   ROW     3   COL     2   RATE     650.000    
 BOUNDARY     33   LAYER   1   ROW     3   COL     3   RATE     650.000    
 BOUNDARY     34   LAYER   1   ROW     3   COL     4   RATE     650.000    
 BOUNDARY     35   LAYER   1   ROW     3   COL     5   RATE     650.000    
 BOUNDARY     36   LAYER   1   ROW     3   COL     6   RATE     650.000    
 BOUNDARY     37   LAYER   1   ROW     3   COL     7   RATE     650.000    
 BOUNDARY     38   LAYER   1   ROW     3   COL     8   RATE     650.000    
 BOUNDARY     39   LAYER   1   ROW     3   COL     9   RATE     650.000    
 BOUNDARY     40   LAYER   1   ROW     3   COL    10   RATE     650.000    
 BOUNDARY     41   LAYER   1   ROW     3   COL    11   RATE     650.000    
 BOUNDARY     42   LAYER   1   ROW     3   COL    12   RATE     650.000    
 BOUNDARY     43   LAYER   1   ROW     3   COL    13   RATE     650.000    
 BOUNDARY     44   LAYER   1   ROW     3   COL    14   RATE     650.000    
 BOUNDARY     45   LAYER   1   ROW     3   COL    15   RATE     650.000    
 BOUNDARY     46   LAYER   1   ROW     4   COL     1   RATE     650.000    
 BOUNDARY     47   LAYER   1   ROW     4   COL     2   RATE     650.000    
 BOUNDARY     48   LAYER   1   ROW     4   COL     3   RATE     650.000    
 BOUNDARY     49   LAYER   1   ROW     4   COL     4   RATE     650.000    
 BOUNDARY     50   LAYER   1   ROW     4   COL     5   RATE     650.000    
 BOUNDARY     51   LAYER   1   ROW     4   COL     6   RATE     650.000    
 BOUNDARY     52   LAYER   1   ROW     4   COL     7   RATE     650.000    
 BOUNDARY     53   LAYER   1   ROW     4   COL     8   RATE     650.000    
 BOUNDARY     54   LAYER   1   ROW     4   COL     9   RATE     650.000    
 BOUNDARY     55   LAYER   1   ROW     4   COL    10   RATE     650.000    
 BOUNDARY     56   LAYER   1   ROW     4   COL    11   RATE     650.000    
 BOUNDARY     57   LAYER   1   ROW     4   COL    12   RATE     650.000    
 BOUNDARY     58   LAYER   1   ROW     4   COL    13   RATE     650.000    
 BOUNDARY     59   LAYER   1   ROW     4   COL    14   RATE     650.000    
 BOUNDARY     60   LAYER   1   ROW     4   COL    15   RATE     650.000    
 BOUNDARY     61   LAYER   1   ROW     5   COL     1   RATE     650.000    
 BOUNDARY     62   LAYER   1   ROW     5   COL     2   RATE     650.000    
 BOUNDARY     63   LAYER   1   ROW     5   COL     3   RATE     650.000    
 BOUNDARY     64   LAYER   1   ROW     5   COL     4   RATE     650.000    
 BOUNDARY     65   LAYER   1   ROW     5   COL     5   RATE     650.000    
 BOUNDARY     66   LAYER   1   ROW     5   COL     6   RATE     650.000    
 BOUNDARY     67   LAYER   1   ROW     5   COL     7   RATE     650.000    
 BOUNDARY     68   LAYER   1   ROW     5   COL     8   RATE     650.000    
 BOUNDARY     69   LAYER   1   ROW     5   COL     9   RATE     650.000    
 BOUNDARY     70   LAYER   1   ROW     5   COL    10   RATE     650.000    
 BOUNDARY     71   LAYER   1   ROW     5   COL    11   RATE     650.000    
 BOUNDARY     72   LAYER   1   ROW     5   COL    12   RATE     650.000    
 BOUNDARY     73   LAYER   1   ROW     5   COL    13   RATE     650.000    
 BOUNDARY     74   LAYER   1   ROW     5   COL    14   RATE     650.000    
 BOUNDARY     75   LAYER   1   ROW     5   COL    15   RATE     650.000    
 BOUNDARY     76   LAYER   1   ROW     6   COL     1   RATE     650.000    
 BOUNDARY     77   LAYER   1   ROW     6   COL     2   RATE     650.000    
 BOUNDARY     78   LAYER   1   ROW     6   COL     3   RATE     650.000    
 BOUNDARY     79   LAYER   1   ROW     6   COL     4   RATE     650.000    
 BOUNDARY     80   LAYER   1   ROW     6   COL     5   RATE     650.000    
 BOUNDARY     81   LAYER   1   ROW     6   COL     6   RATE     650.000    
 BOUNDARY     82   LAYER   1   ROW     6   COL     7   RATE     650.000    
 BOUNDARY     83   LAYER   1   ROW     6   COL     8   RATE     650.000    
 BOUNDARY     84   LAYER   1   ROW     6   COL     9   RATE     650.000    
 BOUNDARY     85   LAYER   1   ROW     6   COL    10   RATE     650.000    
 BOUNDARY     86   LAYER   1   ROW     6   COL    11   RATE     650.000    
 BOUNDARY     87   LAYER   1   ROW     6   COL    12   RATE     650.000    
 BOUNDARY     88   LAYER   1   ROW     6   COL    13   RATE     650.000    
 BOUNDARY     89   LAYER   1   ROW     6   COL    14   RATE     650.000    
 BOUNDARY     90   LAYER   1   ROW     6   COL    15   RATE     650.000    
 BOUNDARY     91   LAYER   1   ROW     7   COL     1   RATE     650.000    
 BOUNDARY     92   LAYER   1   ROW     7   COL     2   RATE     650.000    
 BOUNDARY     93   LAYER   1   ROW     7   COL     3   RATE     650.000    
 BOUNDARY     94   LAYER   1   ROW     7   COL     4   RATE     650.000    
 BOUNDARY     95   LAYER   1   ROW     7   COL     5   RATE     650.000    
 BOUNDARY     96   LAYER   1   ROW     7   COL     6   RATE     650.000    
 BOUNDARY     97   LAYER   1   ROW     7   COL     7   RATE     650.000    
 BOUNDARY     98   LAYER   1   ROW     7   COL     8   RATE     650.000    
 BOUNDARY     99   LAYER   1   ROW     7   COL     9   RATE     650.000    
 BOUNDARY    100   LAYER   1   ROW     7   COL    10   RATE     650.000    
 BOUNDARY    101   LAYER   1   ROW     7   COL    11   RATE     650.000    
 BOUNDARY    102   LAYER   1   ROW     7   COL    12   RATE     650.000    
 BOUNDARY    103   LAYER   1   ROW     7   COL    13   RATE     650.000    
 BOUNDARY    104   LAYER   1   ROW     7   COL    14   RATE     650.000    
 BOUNDARY    105   LAYER   1   ROW     7   COL    15   RATE     650.000    
 BOUNDARY    106   LAYER   1   ROW     8   COL     1   RATE     650.000    
 BOUNDARY    107   LAYER   1   ROW     8   COL     2   RATE     650.000    
 BOUNDARY    108   LAYER   1   ROW     8   COL     3   RATE     650.000    
 BOUNDARY    109   LAYER   1   ROW     8   COL     4   RATE     650.000    
 BOUNDARY    110   LAYER   1   ROW     8   COL     5   RATE     650.000    
 BOUNDARY    111   LAYER   1   ROW     8   COL     6   RATE     650.000    
 BOUNDARY    112   LAYER   1   ROW     8   COL     7   RATE     650.000    
 BOUNDARY    113   LAYER   1   ROW     8   COL     8   RATE     650.000    
 BOUNDARY    114   LAYER   1   ROW     8   COL     9   RATE     650.000    
 BOUNDARY    115   LAYER   1   ROW     8   COL    10   RATE     650.000    
 BOUNDARY    116   LAYER   1   ROW     8   COL    11   RATE     650.000    
 BOUNDARY    117   LAYER   1   ROW     8   COL    12   RATE     650.000    
 BOUNDARY    118   LAYER   1   ROW     8   COL    13   RATE     650.000    
 BOUNDARY    119   LAYER   1   ROW     8   COL    14   RATE     650.000    
 BOUNDARY    120   LAYER   1   ROW     8   COL    15   RATE     650.000    
 BOUNDARY    121   LAYER   1   ROW     9   COL     1   RATE     650.000    
 BOUNDARY    122   LAYER   1   ROW     9   COL     2   RATE     650.000    
 BOUNDARY    123   LAYER   1   ROW     9   COL     3   RATE     650.000    
 BOUNDARY    124   LAYER   1   ROW     9   COL     4   RATE     650.000    
 BOUNDARY    125   LAYER   1   ROW     9   COL     5   RATE     650.000    
 BOUNDARY    126   LAYER   1   ROW     9   COL     6   RATE     650.000    
 BOUNDARY    127   LAYER   1   ROW     9   COL     7   RATE     650.000    
 BOUNDARY    128   LAYER   1   ROW     9   COL     8   RATE     650.000    
 BOUNDARY    129   LAYER   1   ROW     9   COL     9   RATE     650.000    
 BOUNDARY    130   LAYER   1   ROW     9   COL    10   RATE     650.000    
 BOUNDARY    131   LAYER   1   ROW     9   COL    11   RATE     650.000    
 BOUNDARY    132   LAYER   1   ROW     9   COL    12   RATE     650.000    
 BOUNDARY    133   LAYER   1   ROW     9   COL    13   RATE     650.000    
 BOUNDARY    134   LAYER   1   ROW     9   COL    14   RATE     650.000    
 BOUNDARY    135   LAYER   1   ROW     9   COL    15   RATE     650.000    
 BOUNDARY    136   LAYER   1   ROW    10   COL     1   RATE     650.000    
 BOUNDARY    137   LAYER   1   ROW    10   COL     2   RATE     650.000    
 BOUNDARY    138   LAYER   1   ROW    10   COL     3   RATE     650.000    
 BOUNDARY    139   LAYER   1   ROW    10   COL     4   RATE     650.000    
 BOUNDARY    140   LAYER   1   ROW    10   COL     5   RATE     650.000    
 BOUNDARY    141   LAYER   1   ROW    10   COL     6   RATE     650.000    
 BOUNDARY    142   LAYER   1   ROW    10   COL     7   RATE     650.000    
 BOUNDARY    143   LAYER   1   ROW    10   COL     8   RATE     650.000    
 BOUNDARY    144   LAYER   1   ROW    10   COL     9   RATE     650.000    
 BOUNDARY    145   LAYER   1   ROW    10   COL    10   RATE     650.000    
 BOUNDARY    146   LAYER   1   ROW    10   COL    11   RATE     650.000    
 BOUNDARY    147   LAYER   1   ROW    10   COL    12   RATE     650.000    
 BOUNDARY    148   LAYER   1   ROW    10   COL    13   RATE     650.000    
 BOUNDARY    149   LAYER   1   ROW    10   COL    14   RATE     650.000    
 BOUNDARY    150   LAYER   1   ROW    10   COL    15   RATE     650.000    
 UBDSV4 SAVING ET SEGS          ON UNIT   1016 AT TIME STEP      8, STRESS PERIOD      4

 ET SEGS            PERIOD  4   STEP  8
 BOUNDARY      1   LAYER   1   ROW     1   COL     1   RATE    -2.43676    
 BOUNDARY      2   LAYER   1   ROW     1   COL     2   RATE    -9.28872    
 BOUNDARY      3   LAYER   1   ROW     1   COL     3   RATE    -53.9242    
 BOUNDARY      4   LAYER   1   ROW     1   COL     4   RATE   -100.0000    
 BOUNDARY      5   LAYER   1   ROW     1   COL     5   RATE   -100.0000    
 BOUNDARY      6   LAYER   1   ROW     1   COL     6   RATE   -100.0000    
 BOUNDARY      7   LAYER   1   ROW     1   COL     7   RATE   -100.0000    
 BOUNDARY      8   LAYER   1   ROW     1   COL     8   RATE   -100.0000    
 BOUNDARY      9   LAYER   1   ROW     1   COL     9   RATE   -100.0000    
 BOUNDARY     10   LAYER   1   ROW     1   COL    10   RATE   -100.0000    
 BOUNDARY     11   LAYER   1   ROW     1   COL    11   RATE   -100.0000    
 BOUNDARY     12   LAYER   1   ROW     1   COL    12   RATE    -17.7933    
 BOUNDARY     13   LAYER   1   ROW     1   COL    13   RATE     0.00000    
 BOUNDARY     14   LAYER   1   ROW     1   COL    14   RATE     0.00000    
 BOUNDARY     15   LAYER   1   ROW     1   COL    15   RATE     0.00000    
 BOUNDARY     16   LAYER   1   ROW     2   COL     1   RATE     0.00000    
 BOUNDARY     17   LAYER   1   ROW     2   COL     2   RATE    -4.76134    
 BOUNDARY     18   LAYER   1   ROW     2   COL     3   RATE    -29.0992    
 BOUNDARY     19   LAYER   1   ROW     2   COL     4   RATE   -100.0000    
 BOUNDARY     20   LAYER   1   ROW     2   COL     5   RATE   -100.0000    
 BOUNDARY     21   LAYER   1   ROW     2   COL     6   RATE   -100.0000    
 BOUNDARY     22   LAYER   1   ROW     2   COL     7   RATE   -100.0000    
 BOUNDARY     23   LAYER   1   ROW     2   COL     8   RATE   -100.0000    
 BOUNDARY     24   LAYER   1   ROW     2   COL     9   RATE   -100.0000    
 BOUNDARY     25   LAYER   1   ROW     2   COL    10   RATE   -100.0000    
 BOUNDARY     26   LAYER   1   ROW     2   COL    11   RATE   -100.0000    
 BOUNDARY     27   LAYER   1   ROW     2   COL    12   RATE    -19.5335    
 BOUNDARY     28   LAYER   1   ROW     2   COL    13   RATE   -0.418089    
 BOUNDARY     29   LAYER   1   ROW     2   COL    14   RATE     0.00000    
 BOUNDARY     30   LAYER   1   ROW     2   COL    15   RATE     0.00000    
 BOUNDARY     31   LAYER   1   ROW     3   COL     1   RATE     0.00000    
 BOUNDARY     32   LAYER   1   ROW     3   COL     2   RATE     0.00000    
 BOUNDARY     33   LAYER   1   ROW     3   COL     3   RATE    -23.2077    
 BOUNDARY     34   LAYER   1   ROW     3   COL     4   RATE   -100.0000    
 BOUNDARY     35   LAYER   1   ROW     3   COL     5   RATE   -100.0000    
 BOUNDARY     36   LAYER   1   ROW     3   COL     6   RATE   -100.0000    
 BOUNDARY     37   LAYER   1   ROW     3   COL     7   RATE   -100.0000    
 BOUNDARY     38   LAYER   1   ROW     3   COL     8   RATE   -100.0000    
 BOUNDARY     39   LAYER   1   ROW     3   COL     9   RATE   -100.0000    
 BOUNDARY     40   LAYER   1   ROW     3   COL    10   RATE   -100.0000    
 BOUNDARY     41   LAYER   1   ROW     3   COL    11   RATE   -100.0000    
 BOUNDARY     42   LAYER   1   ROW     3   COL    12   RATE    -22.4686    
 BOUNDARY     43   LAYER   1   ROW     3   COL    13   RATE    -2.20965    
 BOUNDARY     44   LAYER   1   ROW     3   COL    14   RATE     0.00000    
 BOUNDARY     45   LAYER   1   ROW     3   COL    15   RATE     0.00000    
 BOUNDARY     46   LAYER   1   ROW     4   COL     1   RATE     0.00000    
 BOUNDARY     47   LAYER   1   ROW     4   COL     2   RATE    -3.25747    
 BOUNDARY     48   LAYER   1   ROW     4   COL     3   RATE    -27.1083    
 BOUNDARY     49   LAYER   1   ROW     4   COL     4   RATE   -100.0000    
 BOUNDARY     50   LAYER   1   ROW     4   COL     5   RATE   -100.0000    
 BOUNDARY     51   LAYER   1   ROW     4   COL     6   RATE   -100.0000    
 BOUNDARY     52   LAYER   1   ROW     4   COL     7   RATE   -100.0000    
 BOUNDARY     53   LAYER   1   ROW     4   COL     8   RATE   -100.0000    
 BOUNDARY     54   LAYER   1   ROW     4   COL     9   RATE   -100.0000    
 BOUNDARY     55   LAYER   1   ROW     4   COL    10   RATE   -100.0000    
 BOUNDARY     56   LAYER   1   ROW     4   COL    11   RATE   -100.0000    
 BOUNDARY     57   LAYER   1   ROW     4   COL    12   RATE    -25.2617    
 BOUNDARY     58   LAYER   1   ROW     4   COL    13   RATE    -3.66493    
 BOUNDARY     59   LAYER   1   ROW     4   COL    14   RATE     0.00000    
 BOUNDARY     60   LAYER   1   ROW     4   COL    15   RATE     0.00000    
 BOUNDARY     61   LAYER   1   ROW     5   COL     1   RATE     0.00000    
 BOUNDARY     62   LAYER   1   ROW     5   COL     2   RATE    -6.23433    
 BOUNDARY     63   LAYER   1   ROW     5   COL     3   RATE    -35.7189    
 BOUNDARY     64   LAYER   1   ROW     5   COL     4   RATE   -100.0000    
 BOUNDARY     65   LAYER   1   ROW     5   COL     5   RATE   -100.0000    
 BOUNDARY     66   LAYER   1   ROW     5   COL     6   RATE   -100.0000    
 BOUNDARY     67   LAYER   1   ROW     5   COL     7   RATE   -100.0000    
 BOUNDARY     68   LAYER   1   ROW     5   COL     8   RATE   -100.0000    
 BOUNDARY     69   LAYER   1   ROW     5   COL     9   RATE   -100.0000    
 BOUNDARY     70   LAYER   1   ROW     5   COL    10   RATE   -100.0000    
 BOUNDARY     71   LAYER   1   ROW     5   COL    11   RATE   -100.0000    
 BOUNDARY     72   LAYER   1   ROW     5   COL    12   RATE    -27.1868    
 BOUNDARY     73   LAYER   1   ROW     5   COL    13   RATE    -4.55690    
 BOUNDARY     74   LAYER   1   ROW     5   COL    14   RATE     0.00000    
 BOUNDARY     75   LAYER   1   ROW     5   COL    15   RATE     0.00000    
 BOUNDARY     76   LAYER   1   ROW     6   COL     1   RATE     0.00000    
 BOUNDARY     77   LAYER   1   ROW     6   COL     2   RATE    -4.79869    
 BOUNDARY     78   LAYER   1   ROW     6   COL     3   RATE    -39.5462    
 BOUNDARY     79   LAYER   1   ROW     6   COL     4   RATE   -100.0000    
 BOUNDARY     80   LAYER   1   ROW     6   COL     5   RATE   -100.0000    
 BOUNDARY     81   LAYER   1   ROW     6   COL     6   RATE   -100.0000    
 BOUNDARY     82   LAYER   1   ROW     6   COL     7   RATE   -100.0000    
 BOUNDARY     83   LAYER   1   ROW     6   COL     8   RATE   -100.0000    
 BOUNDARY     84   LAYER   1   ROW     6   COL     9   RATE   -100.0000    
 BOUNDARY     85   LAYER   1   ROW     6   COL    10   RATE   -100.0000    
 BOUNDARY     86   LAYER   1   ROW     6   COL    11   RATE   -100.0000    
 BOUNDARY     87   LAYER   1   ROW     6   COL    12   RATE    -27.8330    
 BOUNDARY     88   LAYER   1   ROW     6   COL    13   RATE    -4.51125    
 BOUNDARY     89   LAYER   1   ROW     6   COL    14   RATE     0.00000    
 BOUNDARY     90   LAYER   1   ROW     6   COL    15   RATE     0.00000    
 BOUNDARY     91   LAYER   1   ROW     7   COL     1   RATE     0.00000    
 BOUNDARY     92   LAYER   1   ROW     7   COL     2   RATE    -1.28349    
 BOUNDARY     93   LAYER   1   ROW     7   COL     3   RATE    -46.3902    
 BOUNDARY     94   LAYER   1   ROW     7   COL     4   RATE   -100.0000    
 BOUNDARY     95   LAYER   1   ROW     7   COL     5   RATE   -100.0000    
 BOUNDARY     96   LAYER   1   ROW     7   COL     6   RATE   -100.0000    
 BOUNDARY     97   LAYER   1   ROW     7   COL     7   RATE   -100.0000    
 BOUNDARY     98   LAYER   1   ROW     7   COL     8   RATE   -100.0000    
 BOUNDARY     99   LAYER   1   ROW     7   COL     9   RATE   -100.0000    
 BOUNDARY    100   LAYER   1   ROW     7   COL    10   RATE   -100.0000    
 BOUNDARY    101   LAYER   1   ROW     7   COL    11   RATE   -100.0000    
 BOUNDARY    102   LAYER   1   ROW     7   COL    12   RATE    -27.6795    
 BOUNDARY    103   LAYER   1   ROW     7   COL    13   RATE    -3.78834    
 BOUNDARY    104   LAYER   1   ROW     7   COL    14   RATE     0.00000    
 BOUNDARY    105   LAYER   1   ROW     7   COL    15   RATE     0.00000    
 BOUNDARY    106   LAYER   1   ROW     8   COL     1   RATE     0.00000    
 BOUNDARY    107   LAYER   1   ROW     8   COL     2   RATE    -12.2078    
 BOUNDARY    108   LAYER   1   ROW     8   COL     3   RATE   -100.0000    
 BOUNDARY    109   LAYER   1   ROW     8   COL     4   RATE   -100.0000    
 BOUNDARY    110   LAYER   1   ROW     8   COL     5   RATE   -100.0000    
 BOUNDARY    111   LAYER   1   ROW     8   COL     6   RATE   -100.0000    
 BOUNDARY    112   LAYER   1   ROW     8   COL     7   RATE   -100.0000    
 BOUNDARY    113   LAYER   1   ROW     8   COL     8   RATE   -100.0000    
 BOUNDARY    114   LAYER   1   ROW     8   COL     9   RATE   -100.0000    
 BOUNDARY    115   LAYER   1   ROW     8   COL    10   RATE   -100.0000    
 BOUNDARY    116   LAYER   1   ROW     8   COL    11   RATE   -100.0000    
 BOUNDARY    117   LAYER   1   ROW     8   COL    12   RATE    -28.0808    
 BOUNDARY    118   LAYER   1   ROW     8   COL    13   RATE    -3.80751    
 BOUNDARY    119   LAYER   1   ROW     8   COL    14   RATE     0.00000    
 BOUNDARY    120   LAYER   1   ROW     8   COL    15   RATE     0.00000    
 BOUNDARY    121   LAYER   1   ROW     9   COL     1   RATE    -19.7966    
 BOUNDARY    122   LAYER   1   ROW     9   COL     2   RATE    -65.5400    
 BOUNDARY    123   LAYER   1   ROW     9   COL     3   RATE   -100.0000    
 BOUNDARY    124   LAYER   1   ROW     9   COL     4   RATE   -100.0000    
 BOUNDARY    125   LAYER   1   ROW     9   COL     5   RATE   -100.0000    
 BOUNDARY    126   LAYER   1   ROW     9   COL     6   RATE   -100.0000    
 BOUNDARY    127   LAYER   1   ROW     9   COL     7   RATE   -100.0000    
 BOUNDARY    128   LAYER   1   ROW     9   COL     8   RATE   -100.0000    
 BOUNDARY    129   LAYER   1   ROW     9   COL     9   RATE   -100.0000    
 BOUNDARY    130   LAYER   1   ROW     9   COL    10   RATE   -100.0000    
 BOUNDARY    131   LAYER   1   ROW     9   COL    11   RATE   -100.0000    
 BOUNDARY    132   LAYER   1   ROW     9   COL    12   RATE    -29.1969    
 BOUNDARY    133   LAYER   1   ROW     9   COL    13   RATE    -4.65155    
 BOUNDARY    134   LAYER   1   ROW     9   COL    14   RATE     0.00000    
 BOUNDARY    135   LAYER   1   ROW     9   COL    15   RATE     0.00000    
 BOUNDARY    136   LAYER   1   ROW    10   COL     1   RATE    -73.7463    
 BOUNDARY    137   LAYER   1   ROW    10   COL     2   RATE   -100.0000    
 BOUNDARY    138   LAYER   1   ROW    10   COL     3   RATE   -100.0000    
 BOUNDARY    139   LAYER   1   ROW    10   COL     4   RATE   -100.0000    
 BOUNDARY    140   LAYER   1   ROW    10   COL     5   RATE   -100.0000    
 BOUNDARY    141   LAYER   1   ROW    10   COL     6   RATE   -100.0000    
 BOUNDARY    142   LAYER   1   ROW    10   COL     7   RATE   -100.0000    
 BOUNDARY    143   LAYER   1   ROW    10   COL     8   RATE   -100.0000    
 BOUNDARY    144   LAYER   1   ROW    10   COL     9   RATE   -100.0000    
 BOUNDARY    145   LAYER   1   ROW    10   COL    10   RATE   -100.0000    
 BOUNDARY    146   LAYER   1   ROW    10   COL    11   RATE   -100.0000    
 BOUNDARY    147   LAYER   1   ROW    10   COL    12   RATE    -30.0070    
 BOUNDARY    148   LAYER   1   ROW    10   COL    13   RATE    -5.19007    
 BOUNDARY    149   LAYER   1   ROW    10   COL    14   RATE     0.00000    
 BOUNDARY    150   LAYER   1   ROW    10   COL    15   RATE     0.00000    

 HEAD WILL BE SAVED ON UNIT 1017 AT END OF TIME STEP    8, STRESS PERIOD    4
WEL   no.    1 value from time series:   0.0000     for time:  68.00     to  69.00    
WEL   no.    2 value from time series:   0.0000     for time:  68.00     to  69.00    
RIV   no.    1 value from time series:   101.00     for time:  68.00     to  69.00    
RIV   no.    2 value from time series:   101.00     for time:  68.00     to  69.00    
RIV   no.    3 value from time series:   111.50     for time:  68.00     to  69.00    
RIV   no.    4 value from time series:   111.50     for time:  68.00     to  69.00    
RIV   no.    5 value from time series:   115.10     for time:  68.00     to  69.00    
RIV   no.    6 value from time series:   115.10     for time:  68.00     to  69.00    
RIV   no.    7 value from time series:   104.00     for time:  68.00     to  69.00    
RIV   no.    8 value from time series:   104.00     for time:  68.00     to  69.00    
RIV   no.    9 value from time series:   113.50     for time:  68.00     to  69.00    
RIV   no.   10 value from time series:   113.50     for time:  68.00     to  69.00    
WEL   no.    1 value from time series:   0.0000     for time:  68.00     to  69.00    
WEL   no.    2 value from time series:   0.0000     for time:  68.00     to  69.00    
RIV   no.    1 value from time series:   101.00     for time:  68.00     to  69.00    
RIV   no.    2 value from time series:   101.00     for time:  68.00     to  69.00    
RIV   no.    3 value from time series:   111.50     for time:  68.00     to  69.00    
RIV   no.    4 value from time series:   111.50     for time:  68.00     to  69.00    
RIV   no.    5 value from time series:   115.10     for time:  68.00     to  69.00    
RIV   no.    6 value from time series:   115.10     for time:  68.00     to  69.00    
RIV   no.    7 value from time series:   104.00     for time:  68.00     to  69.00    
RIV   no.    8 value from time series:   104.00     for time:  68.00     to  69.00    
RIV   no.    9 value from time series:   113.50     for time:  68.00     to  69.00    
RIV   no.   10 value from time series:   113.50     for time:  68.00     to  69.00    

 OUTPUT CONTROL FOR STRESS PERIOD    4   TIME STEP    9
    SAVE BUDGET
    SAVE HEAD
    SAVE HEAD FOR ALL LAYERS
 UBDSV1 SAVING          STORAGE ON UNIT   1016 AT TIME STEP      9, STRESS PERIOD      4
 UBDSV1 SAVING FLOW RIGHT FACE  ON UNIT   1016 AT TIME STEP      9, STRESS PERIOD      4
 UBDSV1 SAVING FLOW FRONT FACE  ON UNIT   1016 AT TIME STEP      9, STRESS PERIOD      4
 UBDSV1 SAVING FLOW LOWER FACE  ON UNIT   1016 AT TIME STEP      9, STRESS PERIOD      4
 UBDSV4 SAVING WELLS NEAR RIVER ON UNIT   1016 AT TIME STEP      9, STRESS PERIOD      4

 WELLS NEAR RIVER   PERIOD  4   STEP  9
 BOUNDARY      1   LAYER   2   ROW     8   COL     4   RATE     0.00000      WELL_2
 BOUNDARY      2   LAYER   2   ROW     3   COL     4   RATE     0.00000      WELL_1
 UBDSV4 SAVING RIVER            ON UNIT   1016 AT TIME STEP      9, STRESS PERIOD      4

 RIVER              PERIOD  4   STEP  9
 BOUNDARY      1   LAYER   1   ROW     1   COL    15   RATE    -4814.72    
 BOUNDARY      2   LAYER   1   ROW     2   COL    15   RATE    -5934.38      RIV2
 BOUNDARY      3   LAYER   1   ROW     3   COL    15   RATE    -2194.43      RIV3
 BOUNDARY      4   LAYER   1   ROW     4   COL    15   RATE    -3655.56    
 BOUNDARY      5   LAYER   1   ROW     5   COL    15   RATE    -2295.97    
 BOUNDARY      6   LAYER   1   ROW     6   COL    15   RATE    -1645.92    
 BOUNDARY      7   LAYER   1   ROW     7   COL    15   RATE    -6126.63      RIVX
 BOUNDARY      8   LAYER   1   ROW     8   COL    15   RATE    -5970.08      RIVX
 BOUNDARY      9   LAYER   1   ROW     9   COL    15   RATE    -2174.27      RIVX
 BOUNDARY     10   LAYER   1   ROW    10   COL    15   RATE    -3074.48    

 GHB LAKES          PERIOD  4   STEP  9
 BOUNDARY      1   LAYER   1   ROW     3   COL     1   RATE    -14575.6    
 BOUNDARY      2   LAYER   1   ROW     7   COL     1   RATE    -1922.40      GHB2_UPPER
 BOUNDARY      3   LAYER   1   ROW     7   COL     1   RATE    -13264.2      GHB2_LOWER
 UBDSV4 SAVING RECHARGE         ON UNIT   1016 AT TIME STEP      9, STRESS PERIOD      4

 RECHARGE           PERIOD  4   STEP  9
 BOUNDARY      1   LAYER   1   ROW     1   COL     1   RATE     653.333    
 BOUNDARY      2   LAYER   1   ROW     1   COL     2   RATE     653.333    
 BOUNDARY      3   LAYER   1   ROW     1   COL     3   RATE     653.333    
 BOUNDARY      4   LAYER   1   ROW     1   COL     4   RATE     653.333    
 BOUNDARY      5   LAYER   1   ROW     1   COL     5   RATE     653.333    
 BOUNDARY      6   LAYER   1   ROW     1   COL     6   RATE     653.333    
 BOUNDARY      7   LAYER   1   ROW     1   COL     7   RATE     653.333    
 BOUNDARY      8   LAYER   1   ROW     1   COL     8   RATE     653.333    
 BOUNDARY      9   LAYER   1   ROW     1   COL     9   RATE     653.333    
 BOUNDARY     10   LAYER   1   ROW     1   COL    10   RATE     653.333    
 BOUNDARY     11   LAYER   1   ROW     1   COL    11   RATE     653.333    
 BOUNDARY     12   LAYER   1   ROW     1   COL    12   RATE     653.333    
 BOUNDARY     13   LAYER   1   ROW     1   COL    13   RATE     653.333    
 BOUNDARY     14   LAYER   1   ROW     1   COL    14   RATE     653.333    
 BOUNDARY     15   LAYER   1   ROW     1   COL    15   RATE     653.333    
 BOUNDARY     16   LAYER   1   ROW     2   COL     1   RATE     653.333    
 BOUNDARY     17   LAYER   1   ROW     2   COL     2   RATE     653.333    
 BOUNDARY     18   LAYER   1   ROW     2   COL     3   RATE     653.333    
 BOUNDARY     19   LAYER   1   ROW     2   COL     4   RATE     653.333    
 BOUNDARY     20   LAYER   1   ROW     2   COL     5   RATE     653.333    
 BOUNDARY     21   LAYER   1   ROW     2   COL     6   RATE     653.333    
 BOUNDARY     22   LAYER   1   ROW     2   COL     7   RATE     653.333    
 BOUNDARY     23   LAYER   1   ROW     2   COL     8   RATE     653.333    
 BOUNDARY     24   LAYER   1   ROW     2   COL     9   RATE     653.333    
 BOUNDARY     25   LAYER   1   ROW     2   COL    10   RATE     653.333    
 BOUNDARY     26   LAYER   1   ROW     2   COL    11   RATE     653.333    
 BOUNDARY     27   LAYER   1   ROW     2   COL    12   RATE     653.333    
 BOUNDARY     28   LAYER   1   ROW     2   COL    13   RATE     653.333    
 BOUNDARY     29   LAYER   1   ROW     2   COL    14   RATE     653.333    
 BOUNDARY     30   LAYER   1   ROW     2   COL    15   RATE     653.333    
 BOUNDARY     31   LAYER   1   ROW     3   COL     1   RATE     653.333    
 BOUNDARY     32   LAYER   1   ROW     3   COL     2   RATE     653.333    
 BOUNDARY     33   LAYER   1   ROW     3   COL     3   RATE     653.333    
 BOUNDARY     34   LAYER   1   ROW     3   COL     4   RATE     653.333    
 BOUNDARY     35   LAYER   1   ROW     3   COL     5   RATE     653.333    
 BOUNDARY     36   LAYER   1   ROW     3   COL     6   RATE     653.333    
 BOUNDARY     37   LAYER   1   ROW     3   COL     7   RATE     653.333    
 BOUNDARY     38   LAYER   1   ROW     3   COL     8   RATE     653.333    
 BOUNDARY     39   LAYER   1   ROW     3   COL     9   RATE     653.333    
 BOUNDARY     40   LAYER   1   ROW     3   COL    10   RATE     653.333    
 BOUNDARY     41   LAYER   1   ROW     3   COL    11   RATE     653.333    
 BOUNDARY     42   LAYER   1   ROW     3   COL    12   RATE     653.333    
 BOUNDARY     43   LAYER   1   ROW     3   COL    13   RATE     653.333    
 BOUNDARY     44   LAYER   1   ROW     3   COL    14   RATE     653.333    
 BOUNDARY     45   LAYER   1   ROW     3   COL    15   RATE     653.333    
 BOUNDARY     46   LAYER   1   ROW     4   COL     1   RATE     653.333    
 BOUNDARY     47   LAYER   1   ROW     4   COL     2   RATE     653.333    
 BOUNDARY     48   LAYER   1   ROW     4   COL     3   RATE     653.333    
 BOUNDARY     49   LAYER   1   ROW     4   COL     4   RATE     653.333    
 BOUNDARY     50   LAYER   1   ROW     4   COL     5   RATE     653.333    
 BOUNDARY     51   LAYER   1   ROW     4   COL     6   RATE     653.333    
 BOUNDARY     52   LAYER   1   ROW     4   COL     7   RATE     653.333    
 BOUNDARY     53   LAYER   1   ROW     4   COL     8   RATE     653.333    
 BOUNDARY     54   LAYER   1   ROW     4   COL     9   RATE     653.333    
 BOUNDARY     55   LAYER   1   ROW     4   COL    10   RATE     653.333    
 BOUNDARY     56   LAYER   1   ROW     4   COL    11   RATE     653.333    
 BOUNDARY     57   LAYER   1   ROW     4   COL    12   RATE     653.333    
 BOUNDARY     58   LAYER   1   ROW     4   COL    13   RATE     653.333    
 BOUNDARY     59   LAYER   1   ROW     4   COL    14   RATE     653.333    
 BOUNDARY     60   LAYER   1   ROW     4   COL    15   RATE     653.333    
 BOUNDARY     61   LAYER   1   ROW     5   COL     1   RATE     653.333    
 BOUNDARY     62   LAYER   1   ROW     5   COL     2   RATE     653.333    
 BOUNDARY     63   LAYER   1   ROW     5   COL     3   RATE     653.333    
 BOUNDARY     64   LAYER   1   ROW     5   COL     4   RATE     653.333    
 BOUNDARY     65   LAYER   1   ROW     5   COL     5   RATE     653.333    
 BOUNDARY     66   LAYER   1   ROW     5   COL     6   RATE     653.333    
 BOUNDARY     67   LAYER   1   ROW     5   COL     7   RATE     653.333    
 BOUNDARY     68   LAYER   1   ROW     5   COL     8   RATE     653.333    
 BOUNDARY     69   LAYER   1   ROW     5   COL     9   RATE     653.333    
 BOUNDARY     70   LAYER   1   ROW     5   COL    10   RATE     653.333    
 BOUNDARY     71   LAYER   1   ROW     5   COL    11   RATE     653.333    
 BOUNDARY     72   LAYER   1   ROW     5   COL    12   RATE     653.333    
 BOUNDARY     73   LAYER   1   ROW     5   COL    13   RATE     653.333    
 BOUNDARY     74   LAYER   1   ROW     5   COL    14   RATE     653.333    
 BOUNDARY     75   LAYER   1   ROW     5   COL    15   RATE     653.333    
 BOUNDARY     76   LAYER   1   ROW     6   COL     1   RATE     653.333    
 BOUNDARY     77   LAYER   1   ROW     6   COL     2   RATE     653.333    
 BOUNDARY     78   LAYER   1   ROW     6   COL     3   RATE     653.333    
 BOUNDARY     79   LAYER   1   ROW     6   COL     4   RATE     653.333    
 BOUNDARY     80   LAYER   1   ROW     6   COL     5   RATE     653.333    
 BOUNDARY     81   LAYER   1   ROW     6   COL     6   RATE     653.333    
 BOUNDARY     82   LAYER   1   ROW     6   COL     7   RATE     653.333    
 BOUNDARY     83   LAYER   1   ROW     6   COL     8   RATE     653.333    
 BOUNDARY     84   LAYER   1   ROW     6   COL     9   RATE     653.333    
 BOUNDARY     85   LAYER   1   ROW     6   COL    10   RATE     653.333    
 BOUNDARY     86   LAYER   1   ROW     6   COL    11   RATE     653.333    
 BOUNDARY     87   LAYER   1   ROW     6   COL    12   RATE     653.333    
 BOUNDARY     88   LAYER   1   ROW     6   COL    13   RATE     653.333    
 BOUNDARY     89   LAYER   1   ROW     6   COL    14   RATE     653.333    
 BOUNDARY     90   LAYER   1   ROW     6   COL    15   RATE     653.333    
 BOUNDARY     91   LAYER   1   ROW     7   COL     1   RATE     653.333    
 BOUNDARY     92   LAYER   1   ROW     7   COL     2   RATE     653.333    
 BOUNDARY     93   LAYER   1   ROW     7   COL     3   RATE     653.333    
 BOUNDARY     94   LAYER   1   ROW     7   COL     4   RATE     653.333    
 BOUNDARY     95   LAYER   1   ROW     7   COL     5   RATE     653.333    
 BOUNDARY     96   LAYER   1   ROW     7   COL     6   RATE     653.333    
 BOUNDARY     97   LAYER   1   ROW     7   COL     7   RATE     653.333    
 BOUNDARY     98   LAYER   1   ROW     7   COL     8   RATE     653.333    
 BOUNDARY     99   LAYER   1   ROW     7   COL     9   RATE     653.333    
 BOUNDARY    100   LAYER   1   ROW     7   COL    10   RATE     653.333    
 BOUNDARY    101   LAYER   1   ROW     7   COL    11   RATE     653.333    
 BOUNDARY    102   LAYER   1   ROW     7   COL    12   RATE     653.333    
 BOUNDARY    103   LAYER   1   ROW     7   COL    13   RATE     653.333    
 BOUNDARY    104   LAYER   1   ROW     7   COL    14   RATE     653.333    
 BOUNDARY    105   LAYER   1   ROW     7   COL    15   RATE     653.333    
 BOUNDARY    106   LAYER   1   ROW     8   COL     1   RATE     653.333    
 BOUNDARY    107   LAYER   1   ROW     8   COL     2   RATE     653.333    
 BOUNDARY    108   LAYER   1   ROW     8   COL     3   RATE     653.333    
 BOUNDARY    109   LAYER   1   ROW     8   COL     4   RATE     653.333    
 BOUNDARY    110   LAYER   1   ROW     8   COL     5   RATE     653.333    
 BOUNDARY    111   LAYER   1   ROW     8   COL     6   RATE     653.333    
 BOUNDARY    112   LAYER   1   ROW     8   COL     7   RATE     653.333    
 BOUNDARY    113   LAYER   1   ROW     8   COL     8   RATE     653.333    
 BOUNDARY    114   LAYER   1   ROW     8   COL     9   RATE     653.333    
 BOUNDARY    115   LAYER   1   ROW     8   COL    10   RATE     653.333    
 BOUNDARY    116   LAYER   1   ROW     8   COL    11   RATE     653.333    
 BOUNDARY    117   LAYER   1   ROW     8   COL    12   RATE     653.333    
 BOUNDARY    118   LAYER   1   ROW     8   COL    13   RATE     653.333    
 BOUNDARY    119   LAYER   1   ROW     8   COL    14   RATE     653.333    
 BOUNDARY    120   LAYER   1   ROW     8   COL    15   RATE     653.333    
 BOUNDARY    121   LAYER   1   ROW     9   COL     1   RATE     653.333    
 BOUNDARY    122   LAYER   1   ROW     9   COL     2   RATE     653.333    
 BOUNDARY    123   LAYER   1   ROW     9   COL     3   RATE     653.333    
 BOUNDARY    124   LAYER   1   ROW     9   COL     4   RATE     653.333    
 BOUNDARY    125   LAYER   1   ROW     9   COL     5   RATE     653.333    
 BOUNDARY    126   LAYER   1   ROW     9   COL     6   RATE     653.333    
 BOUNDARY    127   LAYER   1   ROW     9   COL     7   RATE     653.333    
 BOUNDARY    128   LAYER   1   ROW     9   COL     8   RATE     653.333    
 BOUNDARY    129   LAYER   1   ROW     9   COL     9   RATE     653.333    
 BOUNDARY    130   LAYER   1   ROW     9   COL    10   RATE     653.333    
 BOUNDARY    131   LAYER   1   ROW     9   COL    11   RATE     653.333    
 BOUNDARY    132   LAYER   1   ROW     9   COL    12   RATE     653.333    
 BOUNDARY    133   LAYER   1   ROW     9   COL    13   RATE     653.333    
 BOUNDARY    134   LAYER   1   ROW     9   COL    14   RATE     653.333    
 BOUNDARY    135   LAYER   1   ROW     9   COL    15   RATE     653.333    
 BOUNDARY    136   LAYER   1   ROW    10   COL     1   RATE     653.333    
 BOUNDARY    137   LAYER   1   ROW    10   COL     2   RATE     653.333    
 BOUNDARY    138   LAYER   1   ROW    10   COL     3   RATE     653.333    
 BOUNDARY    139   LAYER   1   ROW    10   COL     4   RATE     653.333    
 BOUNDARY    140   LAYER   1   ROW    10   COL     5   RATE     653.333    
 BOUNDARY    141   LAYER   1   ROW    10   COL     6   RATE     653.333    
 BOUNDARY    142   LAYER   1   ROW    10   COL     7   RATE     653.333    
 BOUNDARY    143   LAYER   1   ROW    10   COL     8   RATE     653.333    
 BOUNDARY    144   LAYER   1   ROW    10   COL     9   RATE     653.333    
 BOUNDARY    145   LAYER   1   ROW    10   COL    10   RATE     653.333    
 BOUNDARY    146   LAYER   1   ROW    10   COL    11   RATE     653.333    
 BOUNDARY    147   LAYER   1   ROW    10   COL    12   RATE     653.333    
 BOUNDARY    148   LAYER   1   ROW    10   COL    13   RATE     653.333    
 BOUNDARY    149   LAYER   1   ROW    10   COL    14   RATE     653.333    
 BOUNDARY    150   LAYER   1   ROW    10   COL    15   RATE     653.333    
 UBDSV4 SAVING ET SEGS          ON UNIT   1016 AT TIME STEP      9, STRESS PERIOD      4

 ET SEGS            PERIOD  4   STEP  9
 BOUNDARY      1   LAYER   1   ROW     1   COL     1   RATE    -2.44843    
 BOUNDARY      2   LAYER   1   ROW     1   COL     2   RATE    -9.30038    
 BOUNDARY      3   LAYER   1   ROW     1   COL     3   RATE    -54.1269    
 BOUNDARY      4   LAYER   1   ROW     1   COL     4   RATE   -100.0000    
 BOUNDARY      5   LAYER   1   ROW     1   COL     5   RATE   -100.0000    
 BOUNDARY      6   LAYER   1   ROW     1   COL     6   RATE   -100.0000    
 BOUNDARY      7   LAYER   1   ROW     1   COL     7   RATE   -100.0000    
 BOUNDARY      8   LAYER   1   ROW     1   COL     8   RATE   -100.0000    
 BOUNDARY      9   LAYER   1   ROW     1   COL     9   RATE   -100.0000    
 BOUNDARY     10   LAYER   1   ROW     1   COL    10   RATE   -100.0000    
 BOUNDARY     11   LAYER   1   ROW     1   COL    11   RATE   -100.0000    
 BOUNDARY     12   LAYER   1   ROW     1   COL    12   RATE    -17.8340    
 BOUNDARY     13   LAYER   1   ROW     1   COL    13   RATE     0.00000    
 BOUNDARY     14   LAYER   1   ROW     1   COL    14   RATE     0.00000    
 BOUNDARY     15   LAYER   1   ROW     1   COL    15   RATE     0.00000    
 BOUNDARY     16   LAYER   1   ROW     2   COL     1   RATE     0.00000    
 BOUNDARY     17   LAYER   1   ROW     2   COL     2   RATE    -4.77287    
 BOUNDARY     18   LAYER   1   ROW     2   COL     3   RATE    -29.1442    
 BOUNDARY     19   LAYER   1   ROW     2   COL     4   RATE   -100.0000    
 BOUNDARY     20   LAYER   1   ROW     2   COL     5   RATE   -100.0000    
 BOUNDARY     21   LAYER   1   ROW     2   COL     6   RATE   -100.0000    
 BOUNDARY     22   LAYER   1   ROW     2   COL     7   RATE   -100.0000    
 BOUNDARY     23   LAYER   1   ROW     2   COL     8   RATE   -100.0000    
 BOUNDARY     24   LAYER   1   ROW     2   COL     9   RATE   -100.0000    
 BOUNDARY     25   LAYER   1   ROW     2   COL    10   RATE   -100.0000    
 BOUNDARY     26   LAYER   1   ROW     2   COL    11   RATE   -100.0000    
 BOUNDARY     27   LAYER   1   ROW     2   COL    12   RATE    -19.5742    
 BOUNDARY     28   LAYER   1   ROW     2   COL    13   RATE   -0.430234    
 BOUNDARY     29   LAYER   1   ROW     2   COL    14   RATE     0.00000    
 BOUNDARY     30   LAYER   1   ROW     2   COL    15   RATE     0.00000    
 BOUNDARY     31   LAYER   1   ROW     3   COL     1   RATE     0.00000    
 BOUNDARY     32   LAYER   1   ROW     3   COL     2   RATE     0.00000    
 BOUNDARY     33   LAYER   1   ROW     3   COL     3   RATE    -23.2467    
 BOUNDARY     34   LAYER   1   ROW     3   COL     4   RATE   -100.0000    
 BOUNDARY     35   LAYER   1   ROW     3   COL     5   RATE   -100.0000    
 BOUNDARY     36   LAYER   1   ROW     3   COL     6   RATE   -100.0000    
 BOUNDARY     37   LAYER   1   ROW     3   COL     7   RATE   -100.0000    
 BOUNDARY     38   LAYER   1   ROW     3   COL     8   RATE   -100.0000    
 BOUNDARY     39   LAYER   1   ROW     3   COL     9   RATE   -100.0000    
 BOUNDARY     40   LAYER   1   ROW     3   COL    10   RATE   -100.0000    
 BOUNDARY     41   LAYER   1   ROW     3   COL    11   RATE   -100.0000    
 BOUNDARY     42   LAYER   1   ROW     3   COL    12   RATE    -22.5094    
 BOUNDARY     43   LAYER   1   ROW     3   COL    13   RATE    -2.22193    
 BOUNDARY     44   LAYER   1   ROW     3   COL    14   RATE     0.00000    
 BOUNDARY     45   LAYER   1   ROW     3   COL    15   RATE     0.00000    
 BOUNDARY     46   LAYER   1   ROW     4   COL     1   RATE     0.00000    
 BOUNDARY     47   LAYER   1   ROW     4   COL     2   RATE    -3.26903    
 BOUNDARY     48   LAYER   1   ROW     4   COL     3   RATE    -27.1475    
 BOUNDARY     49   LAYER   1   ROW     4   COL     4   RATE   -100.0000    
 BOUNDARY     50   LAYER   1   ROW     4   COL     5   RATE   -100.0000    
 BOUNDARY     51   LAYER   1   ROW     4   COL     6   RATE   -100.0000    
 BOUNDARY     52   LAYER   1   ROW     4   COL     7   RATE   -100.0000    
 BOUNDARY     53   LAYER   1   ROW     4   COL     8   RATE   -100.0000    
 BOUNDARY     54   LAYER   1   ROW     4   COL     9   RATE   -100.0000    
 BOUNDARY     55   LAYER   1   ROW     4   COL    10   RATE   -100.0000    
 BOUNDARY     56   LAYER   1   ROW     4   COL    11   RATE   -100.0000    
 BOUNDARY     57   LAYER   1   ROW     4   COL    12   RATE    -25.3022    
 BOUNDARY     58   LAYER   1   ROW     4   COL    13   RATE    -3.67701    
 BOUNDARY     59   LAYER   1   ROW     4   COL    14   RATE     0.00000    
 BOUNDARY     60   LAYER   1   ROW     4   COL    15   RATE     0.00000    
 BOUNDARY     61   LAYER   1   ROW     5   COL     1   RATE     0.00000    
 BOUNDARY     62   LAYER   1   ROW     5   COL     2   RATE    -6.24605    
 BOUNDARY     63   LAYER   1   ROW     5   COL     3   RATE    -35.9230    
 BOUNDARY     64   LAYER   1   ROW     5   COL     4   RATE   -100.0000    
 BOUNDARY     65   LAYER   1   ROW     5   COL     5   RATE   -100.0000    
 BOUNDARY     66   LAYER   1   ROW     5   COL     6   RATE   -100.0000    
 BOUNDARY     67   LAYER   1   ROW     5   COL     7   RATE   -100.0000    
 BOUNDARY     68   LAYER   1   ROW     5   COL     8   RATE   -100.0000    
 BOUNDARY     69   LAYER   1   ROW     5   COL     9   RATE   -100.0000    
 BOUNDARY     70   LAYER   1   ROW     5   COL    10   RATE   -100.0000    
 BOUNDARY     71   LAYER   1   ROW     5   COL    11   RATE   -100.0000    
 BOUNDARY     72   LAYER   1   ROW     5   COL    12   RATE    -27.2268    
 BOUNDARY     73   LAYER   1   ROW     5   COL    13   RATE    -4.56859    
 BOUNDARY     74   LAYER   1   ROW     5   COL    14   RATE     0.00000    
 BOUNDARY     75   LAYER   1   ROW     5   COL    15   RATE     0.00000    
 BOUNDARY     76   LAYER   1   ROW     6   COL     1   RATE     0.00000    
 BOUNDARY     77   LAYER   1   ROW     6   COL     2   RATE    -4.81014    
 BOUNDARY     78   LAYER   1   ROW     6   COL     3   RATE    -39.7489    
 BOUNDARY     79   LAYER   1   ROW     6   COL     4   RATE   -100.0000    
 BOUNDARY     80   LAYER   1   ROW     6   COL     5   RATE   -100.0000    
 BOUNDARY     81   LAYER   1   ROW     6   COL     6   RATE   -100.0000    
 BOUNDARY     82   LAYER   1   ROW     6   COL     7   RATE   -100.0000    
 BOUNDARY     83   LAYER   1   ROW     6   COL     8   RATE   -100.0000    
 BOUNDARY     84   LAYER   1   ROW     6   COL     9   RATE   -100.0000    
 BOUNDARY     85   LAYER   1   ROW     6   COL    10   RATE   -100.0000    
 BOUNDARY     86   LAYER   1   ROW     6   COL    11   RATE   -100.0000    
 BOUNDARY     87   LAYER   1   ROW     6   COL    12   RATE    -27.8730    
 BOUNDARY     88   LAYER   1   ROW     6   COL    13   RATE    -4.52281    
 BOUNDARY     89   LAYER   1   ROW     6   COL    14   RATE     0.00000    
 BOUNDARY     90   LAYER   1   ROW     6   COL    15   RATE     0.00000    
 BOUNDARY     91   LAYER   1   ROW     7   COL     1   RATE     0.00000    
 BOUNDARY     92   LAYER   1   ROW     7   COL     2   RATE    -1.29425    
 BOUNDARY     93   LAYER   1   ROW     7   COL     3   RATE    -46.5917    
 BOUNDARY     94   LAYER   1   ROW     7   COL     4   RATE   -100.0000    
 BOUNDARY     95   LAYER   1   ROW     7   COL     5   RATE   -100.0000    
 BOUNDARY     96   LAYER   1   ROW     7   COL     6   RATE   -100.0000    
 BOUNDARY     97   LAYER   1   ROW     7   COL     7   RATE   -100.0000    
 BOUNDARY     98   LAYER   1   ROW     7   COL     8   RATE   -100.0000    
 BOUNDARY     99   LAYER   1   ROW     7   COL     9   RATE   -100.0000    
 BOUNDARY    100   LAYER   1   ROW     7   COL    10   RATE   -100.0000    
 BOUNDARY    101   LAYER   1   ROW     7   COL    11   RATE   -100.0000    
 BOUNDARY    102   LAYER   1   ROW     7   COL    12   RATE    -27.7197    
 BOUNDARY    103   LAYER   1   ROW     7   COL    13   RATE    -3.80011    
 BOUNDARY    104   LAYER   1   ROW     7   COL    14   RATE     0.00000    
 BOUNDARY    105   LAYER   1   ROW     7   COL    15   RATE     0.00000    
 BOUNDARY    106   LAYER   1   ROW     8   COL     1   RATE     0.00000    
 BOUNDARY    107   LAYER   1   ROW     8   COL     2   RATE    -12.2460    
 BOUNDARY    108   LAYER   1   ROW     8   COL     3   RATE   -100.0000    
 BOUNDARY    109   LAYER   1   ROW     8   COL     4   RATE   -100.0000    
 BOUNDARY    110   LAYER   1   ROW     8   COL     5   RATE   -100.0000    
 BOUNDARY    111   LAYER   1   ROW     8   COL     6   RATE   -100.0000    
 BOUNDARY    112   LAYER   1   ROW     8   COL     7   RATE   -100.0000    
 BOUNDARY    113   LAYER   1   ROW     8   COL     8   RATE   -100.0000    
 BOUNDARY    114   LAYER   1   ROW     8   COL     9   RATE   -100.0000    
 BOUNDARY    115   LAYER   1   ROW     8   COL    10   RATE   -100.0000    
 BOUNDARY    116   LAYER   1   ROW     8   COL    11   RATE   -100.0000    
 BOUNDARY    117   LAYER   1   ROW     8   COL    12   RATE    -28.1216    
 BOUNDARY    118   LAYER   1   ROW     8   COL    13   RATE    -3.81977    
 BOUNDARY    119   LAYER   1   ROW     8   COL    14   RATE     0.00000    
 BOUNDARY    120   LAYER   1   ROW     8   COL    15   RATE     0.00000    
 BOUNDARY    121   LAYER   1   ROW     9   COL     1   RATE    -19.8351    
 BOUNDARY    122   LAYER   1   ROW     9   COL     2   RATE    -65.7437    
 BOUNDARY    123   LAYER   1   ROW     9   COL     3   RATE   -100.0000    
 BOUNDARY    124   LAYER   1   ROW     9   COL     4   RATE   -100.0000    
 BOUNDARY    125   LAYER   1   ROW     9   COL     5   RATE   -100.0000    
 BOUNDARY    126   LAYER   1   ROW     9   COL     6   RATE   -100.0000    
 BOUNDARY    127   LAYER   1   ROW     9   COL     7   RATE   -100.0000    
 BOUNDARY    128   LAYER   1   ROW     9   COL     8   RATE   -100.0000    
 BOUNDARY    129   LAYER   1   ROW     9   COL     9   RATE   -100.0000    
 BOUNDARY    130   LAYER   1   ROW     9   COL    10   RATE   -100.0000    
 BOUNDARY    131   LAYER   1   ROW     9   COL    11   RATE   -100.0000    
 BOUNDARY    132   LAYER   1   ROW     9   COL    12   RATE    -29.2383    
 BOUNDARY    133   LAYER   1   ROW     9   COL    13   RATE    -4.66442    
 BOUNDARY    134   LAYER   1   ROW     9   COL    14   RATE     0.00000    
 BOUNDARY    135   LAYER   1   ROW     9   COL    15   RATE     0.00000    
 BOUNDARY    136   LAYER   1   ROW    10   COL     1   RATE    -73.9495    
 BOUNDARY    137   LAYER   1   ROW    10   COL     2   RATE   -100.0000    
 BOUNDARY    138   LAYER   1   ROW    10   COL     3   RATE   -100.0000    
 BOUNDARY    139   LAYER   1   ROW    10   COL     4   RATE   -100.0000    
 BOUNDARY    140   LAYER   1   ROW    10   COL     5   RATE   -100.0000    
 BOUNDARY    141   LAYER   1   ROW    10   COL     6   RATE   -100.0000    
 BOUNDARY    142   LAYER   1   ROW    10   COL     7   RATE   -100.0000    
 BOUNDARY    143   LAYER   1   ROW    10   COL     8   RATE   -100.0000    
 BOUNDARY    144   LAYER   1   ROW    10   COL     9   RATE   -100.0000    
 BOUNDARY    145   LAYER   1   ROW    10   COL    10   RATE   -100.0000    
 BOUNDARY    146   LAYER   1   ROW    10   COL    11   RATE   -100.0000    
 BOUNDARY    147   LAYER   1   ROW    10   COL    12   RATE    -30.2264    
 BOUNDARY    148   LAYER   1   ROW    10   COL    13   RATE    -5.20329    
 BOUNDARY    149   LAYER   1   ROW    10   COL    14   RATE     0.00000    
 BOUNDARY    150   LAYER   1   ROW    10   COL    15   RATE     0.00000    

 HEAD WILL BE SAVED ON UNIT 1017 AT END OF TIME STEP    9, STRESS PERIOD    4
WEL   no.    1 value from time series:   0.0000     for time:  69.00     to  70.00    
WEL   no.    2 value from time series:   0.0000     for time:  69.00     to  70.00    
RIV   no.    1 value from time series:   101.00     for time:  69.00     to  70.00    
RIV   no.    2 value from time series:   101.00     for time:  69.00     to  70.00    
RIV   no.    3 value from time series:   111.50     for time:  69.00     to  70.00    
RIV   no.    4 value from time series:   111.50     for time:  69.00     to  70.00    
RIV   no.    5 value from time series:   115.10     for time:  69.00     to  70.00    
RIV   no.    6 value from time series:   115.10     for time:  69.00     to  70.00    
RIV   no.    7 value from time series:   104.00     for time:  69.00     to  70.00    
RIV   no.    8 value from time series:   104.00     for time:  69.00     to  70.00    
RIV   no.    9 value from time series:   113.50     for time:  69.00     to  70.00    
RIV   no.   10 value from time series:   113.50     for time:  69.00     to  70.00    
WEL   no.    1 value from time series:   0.0000     for time:  69.00     to  70.00    
WEL   no.    2 value from time series:   0.0000     for time:  69.00     to  70.00    
RIV   no.    1 value from time series:   101.00     for time:  69.00     to  70.00    
RIV   no.    2 value from time series:   101.00     for time:  69.00     to  70.00    
RIV   no.    3 value from time series:   111.50     for time:  69.00     to  70.00    
RIV   no.    4 value from time series:   111.50     for time:  69.00     to  70.00    
RIV   no.    5 value from time series:   115.10     for time:  69.00     to  70.00    
RIV   no.    6 value from time series:   115.10     for time:  69.00     to  70.00    
RIV   no.    7 value from time series:   104.00     for time:  69.00     to  70.00    
RIV   no.    8 value from time series:   104.00     for time:  69.00     to  70.00    
RIV   no.    9 value from time series:   113.50     for time:  69.00     to  70.00    
RIV   no.   10 value from time series:   113.50     for time:  69.00     to  70.00    

 OUTPUT CONTROL FOR STRESS PERIOD    4   TIME STEP   10
    SAVE BUDGET
    SAVE HEAD
    SAVE HEAD FOR ALL LAYERS
 UBDSV1 SAVING          STORAGE ON UNIT   1016 AT TIME STEP     10, STRESS PERIOD      4
 UBDSV1 SAVING FLOW RIGHT FACE  ON UNIT   1016 AT TIME STEP     10, STRESS PERIOD      4
 UBDSV1 SAVING FLOW FRONT FACE  ON UNIT   1016 AT TIME STEP     10, STRESS PERIOD      4
 UBDSV1 SAVING FLOW LOWER FACE  ON UNIT   1016 AT TIME STEP     10, STRESS PERIOD      4
 UBDSV4 SAVING WELLS NEAR RIVER ON UNIT   1016 AT TIME STEP     10, STRESS PERIOD      4

 WELLS NEAR RIVER   PERIOD  4   STEP 10
 BOUNDARY      1   LAYER   2   ROW     8   COL     4   RATE     0.00000      WELL_2
 BOUNDARY      2   LAYER   2   ROW     3   COL     4   RATE     0.00000      WELL_1
 UBDSV4 SAVING RIVER            ON UNIT   1016 AT TIME STEP     10, STRESS PERIOD      4

 RIVER              PERIOD  4   STEP 10
 BOUNDARY      1   LAYER   1   ROW     1   COL    15   RATE    -4816.14    
 BOUNDARY      2   LAYER   1   ROW     2   COL    15   RATE    -5936.05      RIV2
 BOUNDARY      3   LAYER   1   ROW     3   COL    15   RATE    -2196.57      RIV3
 BOUNDARY      4   LAYER   1   ROW     4   COL    15   RATE    -3657.81    
 BOUNDARY      5   LAYER   1   ROW     5   COL    15   RATE    -2298.12    
 BOUNDARY      6   LAYER   1   ROW     6   COL    15   RATE    -1647.95    
 BOUNDARY      7   LAYER   1   ROW     7   COL    15   RATE    -6128.61      RIVX
 BOUNDARY      8   LAYER   1   ROW     8   COL    15   RATE    -5972.29      RIVX
 BOUNDARY      9   LAYER   1   ROW     9   COL    15   RATE    -2176.86      RIVX
 BOUNDARY     10   LAYER   1   ROW    10   COL    15   RATE    -3077.29    

 GHB LAKES          PERIOD  4   STEP 10
 BOUNDARY      1   LAYER   1   ROW     3   COL     1   RATE    -14580.2    
 BOUNDARY      2   LAYER   1   ROW     7   COL     1   RATE    -1926.11      GHB2_UPPER
 BOUNDARY      3   LAYER   1   ROW     7   COL     1   RATE    -13265.5      GHB2_LOWER
 UBDSV4 SAVING RECHARGE         ON UNIT   1016 AT TIME STEP     10, STRESS PERIOD      4

 RECHARGE           PERIOD  4   STEP 10
 BOUNDARY      1   LAYER   1   ROW     1   COL     1   RATE     656.667    
 BOUNDARY      2   LAYER   1   ROW     1   COL     2   RATE     656.667    
 BOUNDARY      3   LAYER   1   ROW     1   COL     3   RATE     656.667    
 BOUNDARY      4   LAYER   1   ROW     1   COL     4   RATE     656.667    
 BOUNDARY      5   LAYER   1   ROW     1   COL     5   RATE     656.667    
 BOUNDARY      6   LAYER   1   ROW     1   COL     6   RATE     656.667    
 BOUNDARY      7   LAYER   1   ROW     1   COL     7   RATE     656.667    
 BOUNDARY      8   LAYER   1   ROW     1   COL     8   RATE     656.667    
 BOUNDARY      9   LAYER   1   ROW     1   COL     9   RATE     656.667    
 BOUNDARY     10   LAYER   1   ROW     1   COL    10   RATE     656.667    
 BOUNDARY     11   LAYER   1   ROW     1   COL    11   RATE     656.667    
 BOUNDARY     12   LAYER   1   ROW     1   COL    12   RATE     656.667    
 BOUNDARY     13   LAYER   1   ROW     1   COL    13   RATE     656.667    
 BOUNDARY     14   LAYER   1   ROW     1   COL    14   RATE     656.667    
 BOUNDARY     15   LAYER   1   ROW     1   COL    15   RATE     656.667    
 BOUNDARY     16   LAYER   1   ROW     2   COL     1   RATE     656.667    
 BOUNDARY     17   LAYER   1   ROW     2   COL     2   RATE     656.667    
 BOUNDARY     18   LAYER   1   ROW     2   COL     3   RATE     656.667    
 BOUNDARY     19   LAYER   1   ROW     2   COL     4   RATE     656.667    
 BOUNDARY     20   LAYER   1   ROW     2   COL     5   RATE     656.667    
 BOUNDARY     21   LAYER   1   ROW     2   COL     6   RATE     656.667    
 BOUNDARY     22   LAYER   1   ROW     2   COL     7   RATE     656.667    
 BOUNDARY     23   LAYER   1   ROW     2   COL     8   RATE     656.667    
 BOUNDARY     24   LAYER   1   ROW     2   COL     9   RATE     656.667    
 BOUNDARY     25   LAYER   1   ROW     2   COL    10   RATE     656.667    
 BOUNDARY     26   LAYER   1   ROW     2   COL    11   RATE     656.667    
 BOUNDARY     27   LAYER   1   ROW     2   COL    12   RATE     656.667    
 BOUNDARY     28   LAYER   1   ROW     2   COL    13   RATE     656.667    
 BOUNDARY     29   LAYER   1   ROW     2   COL    14   RATE     656.667    
 BOUNDARY     30   LAYER   1   ROW     2   COL    15   RATE     656.667    
 BOUNDARY     31   LAYER   1   ROW     3   COL     1   RATE     656.667    
 BOUNDARY     32   LAYER   1   ROW     3   COL     2   RATE     656.667    
 BOUNDARY     33   LAYER   1   ROW     3   COL     3   RATE     656.667    
 BOUNDARY     34   LAYER   1   ROW     3   COL     4   RATE     656.667    
 BOUNDARY     35   LAYER   1   ROW     3   COL     5   RATE     656.667    
 BOUNDARY     36   LAYER   1   ROW     3   COL     6   RATE     656.667    
 BOUNDARY     37   LAYER   1   ROW     3   COL     7   RATE     656.667    
 BOUNDARY     38   LAYER   1   ROW     3   COL     8   RATE     656.667    
 BOUNDARY     39   LAYER   1   ROW     3   COL     9   RATE     656.667    
 BOUNDARY     40   LAYER   1   ROW     3   COL    10   RATE     656.667    
 BOUNDARY     41   LAYER   1   ROW     3   COL    11   RATE     656.667    
 BOUNDARY     42   LAYER   1   ROW     3   COL    12   RATE     656.667    
 BOUNDARY     43   LAYER   1   ROW     3   COL    13   RATE     656.667    
 BOUNDARY     44   LAYER   1   ROW     3   COL    14   RATE     656.667    
 BOUNDARY     45   LAYER   1   ROW     3   COL    15   RATE     656.667    
 BOUNDARY     46   LAYER   1   ROW     4   COL     1   RATE     656.667    
 BOUNDARY     47   LAYER   1   ROW     4   COL     2   RATE     656.667    
 BOUNDARY     48   LAYER   1   ROW     4   COL     3   RATE     656.667    
 BOUNDARY     49   LAYER   1   ROW     4   COL     4   RATE     656.667    
 BOUNDARY     50   LAYER   1   ROW     4   COL     5   RATE     656.667    
 BOUNDARY     51   LAYER   1   ROW     4   COL     6   RATE     656.667    
 BOUNDARY     52   LAYER   1   ROW     4   COL     7   RATE     656.667    
 BOUNDARY     53   LAYER   1   ROW     4   COL     8   RATE     656.667    
 BOUNDARY     54   LAYER   1   ROW     4   COL     9   RATE     656.667    
 BOUNDARY     55   LAYER   1   ROW     4   COL    10   RATE     656.667    
 BOUNDARY     56   LAYER   1   ROW     4   COL    11   RATE     656.667    
 BOUNDARY     57   LAYER   1   ROW     4   COL    12   RATE     656.667    
 BOUNDARY     58   LAYER   1   ROW     4   COL    13   RATE     656.667    
 BOUNDARY     59   LAYER   1   ROW     4   COL    14   RATE     656.667    
 BOUNDARY     60   LAYER   1   ROW     4   COL    15   RATE     656.667    
 BOUNDARY     61   LAYER   1   ROW     5   COL     1   RATE     656.667    
 BOUNDARY     62   LAYER   1   ROW     5   COL     2   RATE     656.667    
 BOUNDARY     63   LAYER   1   ROW     5   COL     3   RATE     656.667    
 BOUNDARY     64   LAYER   1   ROW     5   COL     4   RATE     656.667    
 BOUNDARY     65   LAYER   1   ROW     5   COL     5   RATE     656.667    
 BOUNDARY     66   LAYER   1   ROW     5   COL     6   RATE     656.667    
 BOUNDARY     67   LAYER   1   ROW     5   COL     7   RATE     656.667    
 BOUNDARY     68   LAYER   1   ROW     5   COL     8   RATE     656.667    
 BOUNDARY     69   LAYER   1   ROW     5   COL     9   RATE     656.667    
 BOUNDARY     70   LAYER   1   ROW     5   COL    10   RATE     656.667    
 BOUNDARY     71   LAYER   1   ROW     5   COL    11   RATE     656.667    
 BOUNDARY     72   LAYER   1   ROW     5   COL    12   RATE     656.667    
 BOUNDARY     73   LAYER   1   ROW     5   COL    13   RATE     656.667    
 BOUNDARY     74   LAYER   1   ROW     5   COL    14   RATE     656.667    
 BOUNDARY     75   LAYER   1   ROW     5   COL    15   RATE     656.667    
 BOUNDARY     76   LAYER   1   ROW     6   COL     1   RATE     656.667    
 BOUNDARY     77   LAYER   1   ROW     6   COL     2   RATE     656.667    
 BOUNDARY     78   LAYER   1   ROW     6   COL     3   RATE     656.667    
 BOUNDARY     79   LAYER   1   ROW     6   COL     4   RATE     656.667    
 BOUNDARY     80   LAYER   1   ROW     6   COL     5   RATE     656.667    
 BOUNDARY     81   LAYER   1   ROW     6   COL     6   RATE     656.667    
 BOUNDARY     82   LAYER   1   ROW     6   COL     7   RATE     656.667    
 BOUNDARY     83   LAYER   1   ROW     6   COL     8   RATE     656.667    
 BOUNDARY     84   LAYER   1   ROW     6   COL     9   RATE     656.667    
 BOUNDARY     85   LAYER   1   ROW     6   COL    10   RATE     656.667    
 BOUNDARY     86   LAYER   1   ROW     6   COL    11   RATE     656.667    
 BOUNDARY     87   LAYER   1   ROW     6   COL    12   RATE     656.667    
 BOUNDARY     88   LAYER   1   ROW     6   COL    13   RATE     656.667    
 BOUNDARY     89   LAYER   1   ROW     6   COL    14   RATE     656.667    
 BOUNDARY     90   LAYER   1   ROW     6   COL    15   RATE     656.667    
 BOUNDARY     91   LAYER   1   ROW     7   COL     1   RATE     656.667    
 BOUNDARY     92   LAYER   1   ROW     7   COL     2   RATE     656.667    
 BOUNDARY     93   LAYER   1   ROW     7   COL     3   RATE     656.667    
 BOUNDARY     94   LAYER   1   ROW     7   COL     4   RATE     656.667    
 BOUNDARY     95   LAYER   1   ROW     7   COL     5   RATE     656.667    
 BOUNDARY     96   LAYER   1   ROW     7   COL     6   RATE     656.667    
 BOUNDARY     97   LAYER   1   ROW     7   COL     7   RATE     656.667    
 BOUNDARY     98   LAYER   1   ROW     7   COL     8   RATE     656.667    
 BOUNDARY     99   LAYER   1   ROW     7   COL     9   RATE     656.667    
 BOUNDARY    100   LAYER   1   ROW     7   COL    10   RATE     656.667    
 BOUNDARY    101   LAYER   1   ROW     7   COL    11   RATE     656.667    
 BOUNDARY    102   LAYER   1   ROW     7   COL    12   RATE     656.667    
 BOUNDARY    103   LAYER   1   ROW     7   COL    13   RATE     656.667    
 BOUNDARY    104   LAYER   1   ROW     7   COL    14   RATE     656.667    
 BOUNDARY    105   LAYER   1   ROW     7   COL    15   RATE     656.667    
 BOUNDARY    106   LAYER   1   ROW     8   COL     1   RATE     656.667    
 BOUNDARY    107   LAYER   1   ROW     8   COL     2   RATE     656.667    
 BOUNDARY    108   LAYER   1   ROW     8   COL     3   RATE     656.667    
 BOUNDARY    109   LAYER   1   ROW     8   COL     4   RATE     656.667    
 BOUNDARY    110   LAYER   1   ROW     8   COL     5   RATE     656.667    
 BOUNDARY    111   LAYER   1   ROW     8   COL     6   RATE     656.667    
 BOUNDARY    112   LAYER   1   ROW     8   COL     7   RATE     656.667    
 BOUNDARY    113   LAYER   1   ROW     8   COL     8   RATE     656.667    
 BOUNDARY    114   LAYER   1   ROW     8   COL     9   RATE     656.667    
 BOUNDARY    115   LAYER   1   ROW     8   COL    10   RATE     656.667    
 BOUNDARY    116   LAYER   1   ROW     8   COL    11   RATE     656.667    
 BOUNDARY    117   LAYER   1   ROW     8   COL    12   RATE     656.667    
 BOUNDARY    118   LAYER   1   ROW     8   COL    13   RATE     656.667    
 BOUNDARY    119   LAYER   1   ROW     8   COL    14   RATE     656.667    
 BOUNDARY    120   LAYER   1   ROW     8   COL    15   RATE     656.667    
 BOUNDARY    121   LAYER   1   ROW     9   COL     1   RATE     656.667    
 BOUNDARY    122   LAYER   1   ROW     9   COL     2   RATE     656.667    
 BOUNDARY    123   LAYER   1   ROW     9   COL     3   RATE     656.667    
 BOUNDARY    124   LAYER   1   ROW     9   COL     4   RATE     656.667    
 BOUNDARY    125   LAYER   1   ROW     9   COL     5   RATE     656.667    
 BOUNDARY    126   LAYER   1   ROW     9   COL     6   RATE     656.667    
 BOUNDARY    127   LAYER   1   ROW     9   COL     7   RATE     656.667    
 BOUNDARY    128   LAYER   1   ROW     9   COL     8   RATE     656.667    
 BOUNDARY    129   LAYER   1   ROW     9   COL     9   RATE     656.667    
 BOUNDARY    130   LAYER   1   ROW     9   COL    10   RATE     656.667    
 BOUNDARY    131   LAYER   1   ROW     9   COL    11   RATE     656.667    
 BOUNDARY    132   LAYER   1   ROW     9   COL    12   RATE     656.667    
 BOUNDARY    133   LAYER   1   ROW     9   COL    13   RATE     656.667    
 BOUNDARY    134   LAYER   1   ROW     9   COL    14   RATE     656.667    
 BOUNDARY    135   LAYER   1   ROW     9   COL    15   RATE     656.667    
 BOUNDARY    136   LAYER   1   ROW    10   COL     1   RATE     656.667    
 BOUNDARY    137   LAYER   1   ROW    10   COL     2   RATE     656.667    
 BOUNDARY    138   LAYER   1   ROW    10   COL     3   RATE     656.667    
 BOUNDARY    139   LAYER   1   ROW    10   COL     4   RATE     656.667    
 BOUNDARY    140   LAYER   1   ROW    10   COL     5   RATE     656.667    
 BOUNDARY    141   LAYER   1   ROW    10   COL     6   RATE     656.667    
 BOUNDARY    142   LAYER   1   ROW    10   COL     7   RATE     656.667    
 BOUNDARY    143   LAYER   1   ROW    10   COL     8   RATE     656.667    
 BOUNDARY    144   LAYER   1   ROW    10   COL     9   RATE     656.667    
 BOUNDARY    145   LAYER   1   ROW    10   COL    10   RATE     656.667    
 BOUNDARY    146   LAYER   1   ROW    10   COL    11   RATE     656.667    
 BOUNDARY    147   LAYER   1   ROW    10   COL    12   RATE     656.667    
 BOUNDARY    148   LAYER   1   ROW    10   COL    13   RATE     656.667    
 BOUNDARY    149   LAYER   1   ROW    10   COL    14   RATE     656.667    
 BOUNDARY    150   LAYER   1   ROW    10   COL    15   RATE     656.667    
 UBDSV4 SAVING ET SEGS          ON UNIT   1016 AT TIME STEP     10, STRESS PERIOD      4

 ET SEGS            PERIOD  4   STEP 10
 BOUNDARY      1   LAYER   1   ROW     1   COL     1   RATE    -2.46035    
 BOUNDARY      2   LAYER   1   ROW     1   COL     2   RATE    -9.31230    
 BOUNDARY      3   LAYER   1   ROW     1   COL     3   RATE    -54.3344    
 BOUNDARY      4   LAYER   1   ROW     1   COL     4   RATE   -100.0000    
 BOUNDARY      5   LAYER   1   ROW     1   COL     5   RATE   -100.0000    
 BOUNDARY      6   LAYER   1   ROW     1   COL     6   RATE   -100.0000    
 BOUNDARY      7   LAYER   1   ROW     1   COL     7   RATE   -100.0000    
 BOUNDARY      8   LAYER   1   ROW     1   COL     8   RATE   -100.0000    
 BOUNDARY      9   LAYER   1   ROW     1   COL     9   RATE   -100.0000    
 BOUNDARY     10   LAYER   1   ROW     1   COL    10   RATE   -100.0000    
 BOUNDARY     11   LAYER   1   ROW     1   COL    11   RATE   -100.0000    
 BOUNDARY     12   LAYER   1   ROW     1   COL    12   RATE    -17.8755    
 BOUNDARY     13   LAYER   1   ROW     1   COL    13   RATE     0.00000    
 BOUNDARY     14   LAYER   1   ROW     1   COL    14   RATE     0.00000    
 BOUNDARY     15   LAYER   1   ROW     1   COL    15   RATE     0.00000    
 BOUNDARY     16   LAYER   1   ROW     2   COL     1   RATE     0.00000    
 BOUNDARY     17   LAYER   1   ROW     2   COL     2   RATE    -4.78468    
 BOUNDARY     18   LAYER   1   ROW     2   COL     3   RATE    -29.1898    
 BOUNDARY     19   LAYER   1   ROW     2   COL     4   RATE   -100.0000    
 BOUNDARY     20   LAYER   1   ROW     2   COL     5   RATE   -100.0000    
 BOUNDARY     21   LAYER   1   ROW     2   COL     6   RATE   -100.0000    
 BOUNDARY     22   LAYER   1   ROW     2   COL     7   RATE   -100.0000    
 BOUNDARY     23   LAYER   1   ROW     2   COL     8   RATE   -100.0000    
 BOUNDARY     24   LAYER   1   ROW     2   COL     9   RATE   -100.0000    
 BOUNDARY     25   LAYER   1   ROW     2   COL    10   RATE   -100.0000    
 BOUNDARY     26   LAYER   1   ROW     2   COL    11   RATE   -100.0000    
 BOUNDARY     27   LAYER   1   ROW     2   COL    12   RATE    -19.6158    
 BOUNDARY     28   LAYER   1   ROW     2   COL    13   RATE   -0.442616    
 BOUNDARY     29   LAYER   1   ROW     2   COL    14   RATE     0.00000    
 BOUNDARY     30   LAYER   1   ROW     2   COL    15   RATE     0.00000    
 BOUNDARY     31   LAYER   1   ROW     3   COL     1   RATE     0.00000    
 BOUNDARY     32   LAYER   1   ROW     3   COL     2   RATE     0.00000    
 BOUNDARY     33   LAYER   1   ROW     3   COL     3   RATE    -23.2866    
 BOUNDARY     34   LAYER   1   ROW     3   COL     4   RATE   -100.0000    
 BOUNDARY     35   LAYER   1   ROW     3   COL     5   RATE   -100.0000    
 BOUNDARY     36   LAYER   1   ROW     3   COL     6   RATE   -100.0000    
 BOUNDARY     37   LAYER   1   ROW     3   COL     7   RATE   -100.0000    
 BOUNDARY     38   LAYER   1   ROW     3   COL     8   RATE   -100.0000    
 BOUNDARY     39   LAYER   1   ROW     3   COL     9   RATE   -100.0000    
 BOUNDARY     40   LAYER   1   ROW     3   COL    10   RATE   -100.0000    
 BOUNDARY     41   LAYER   1   ROW     3   COL    11   RATE   -100.0000    
 BOUNDARY     42   LAYER   1   ROW     3   COL    12   RATE    -22.5510    
 BOUNDARY     43   LAYER   1   ROW     3   COL    13   RATE    -2.23443    
 BOUNDARY     44   LAYER   1   ROW     3   COL    14   RATE     0.00000    
 BOUNDARY     45   LAYER   1   ROW     3   COL    15   RATE     0.00000    
 BOUNDARY     46   LAYER   1   ROW     4   COL     1   RATE     0.00000    
 BOUNDARY     47   LAYER   1   ROW     4   COL     2   RATE    -3.28084    
 BOUNDARY     48   LAYER   1   ROW     4   COL     3   RATE    -27.1875    
 BOUNDARY     49   LAYER   1   ROW     4   COL     4   RATE   -100.0000    
 BOUNDARY     50   LAYER   1   ROW     4   COL     5   RATE   -100.0000    
 BOUNDARY     51   LAYER   1   ROW     4   COL     6   RATE   -100.0000    
 BOUNDARY     52   LAYER   1   ROW     4   COL     7   RATE   -100.0000    
 BOUNDARY     53   LAYER   1   ROW     4   COL     8   RATE   -100.0000    
 BOUNDARY     54   LAYER   1   ROW     4   COL     9   RATE   -100.0000    
 BOUNDARY     55   LAYER   1   ROW     4   COL    10   RATE   -100.0000    
 BOUNDARY     56   LAYER   1   ROW     4   COL    11   RATE   -100.0000    
 BOUNDARY     57   LAYER   1   ROW     4   COL    12   RATE    -25.3436    
 BOUNDARY     58   LAYER   1   ROW     4   COL    13   RATE    -3.68934    
 BOUNDARY     59   LAYER   1   ROW     4   COL    14   RATE     0.00000    
 BOUNDARY     60   LAYER   1   ROW     4   COL    15   RATE     0.00000    
 BOUNDARY     61   LAYER   1   ROW     5   COL     1   RATE     0.00000    
 BOUNDARY     62   LAYER   1   ROW     5   COL     2   RATE    -6.25802    
 BOUNDARY     63   LAYER   1   ROW     5   COL     3   RATE    -36.1315    
 BOUNDARY     64   LAYER   1   ROW     5   COL     4   RATE   -100.0000    
 BOUNDARY     65   LAYER   1   ROW     5   COL     5   RATE   -100.0000    
 BOUNDARY     66   LAYER   1   ROW     5   COL     6   RATE   -100.0000    
 BOUNDARY     67   LAYER   1   ROW     5   COL     7   RATE   -100.0000    
 BOUNDARY     68   LAYER   1   ROW     5   COL     8   RATE   -100.0000    
 BOUNDARY     69   LAYER   1   ROW     5   COL     9   RATE   -100.0000    
 BOUNDARY     70   LAYER   1   ROW     5   COL    10   RATE   -100.0000    
 BOUNDARY     71   LAYER   1   ROW     5   COL    11   RATE   -100.0000    
 BOUNDARY     72   LAYER   1   ROW     5   COL    12   RATE    -27.2678    
 BOUNDARY     73   LAYER   1   ROW     5   COL    13   RATE    -4.58054    
 BOUNDARY     74   LAYER   1   ROW     5   COL    14   RATE     0.00000    
 BOUNDARY     75   LAYER   1   ROW     5   COL    15   RATE     0.00000    
 BOUNDARY     76   LAYER   1   ROW     6   COL     1   RATE     0.00000    
 BOUNDARY     77   LAYER   1   ROW     6   COL     2   RATE    -4.82184    
 BOUNDARY     78   LAYER   1   ROW     6   COL     3   RATE    -39.9561    
 BOUNDARY     79   LAYER   1   ROW     6   COL     4   RATE   -100.0000    
 BOUNDARY     80   LAYER   1   ROW     6   COL     5   RATE   -100.0000    
 BOUNDARY     81   LAYER   1   ROW     6   COL     6   RATE   -100.0000    
 BOUNDARY     82   LAYER   1   ROW     6   COL     7   RATE   -100.0000    
 BOUNDARY     83   LAYER   1   ROW     6   COL     8   RATE   -100.0000    
 BOUNDARY     84   LAYER   1   ROW     6   COL     9   RATE   -100.0000    
 BOUNDARY     85   LAYER   1   ROW     6   COL    10   RATE   -100.0000    
 BOUNDARY     86   LAYER   1   ROW     6   COL    11   RATE   -100.0000    
 BOUNDARY     87   LAYER   1   ROW     6   COL    12   RATE    -27.9137    
 BOUNDARY     88   LAYER   1   ROW     6   COL    13   RATE    -4.53461    
 BOUNDARY     89   LAYER   1   ROW     6   COL    14   RATE     0.00000    
 BOUNDARY     90   LAYER   1   ROW     6   COL    15   RATE     0.00000    
 BOUNDARY     91   LAYER   1   ROW     7   COL     1   RATE     0.00000    
 BOUNDARY     92   LAYER   1   ROW     7   COL     2   RATE    -1.30525    
 BOUNDARY     93   LAYER   1   ROW     7   COL     3   RATE    -46.7975    
 BOUNDARY     94   LAYER   1   ROW     7   COL     4   RATE   -100.0000    
 BOUNDARY     95   LAYER   1   ROW     7   COL     5   RATE   -100.0000    
 BOUNDARY     96   LAYER   1   ROW     7   COL     6   RATE   -100.0000    
 BOUNDARY     97   LAYER   1   ROW     7   COL     7   RATE   -100.0000    
 BOUNDARY     98   LAYER   1   ROW     7   COL     8   RATE   -100.0000    
 BOUNDARY     99   LAYER   1   ROW     7   COL     9   RATE   -100.0000    
 BOUNDARY    100   LAYER   1   ROW     7   COL    10   RATE   -100.0000    
 BOUNDARY    101   LAYER   1   ROW     7   COL    11   RATE   -100.0000    
 BOUNDARY    102   LAYER   1   ROW     7   COL    12   RATE    -27.7607    
 BOUNDARY    103   LAYER   1   ROW     7   COL    13   RATE    -3.81212    
 BOUNDARY    104   LAYER   1   ROW     7   COL    14   RATE     0.00000    
 BOUNDARY    105   LAYER   1   ROW     7   COL    15   RATE     0.00000    
 BOUNDARY    106   LAYER   1   ROW     8   COL     1   RATE     0.00000    
 BOUNDARY    107   LAYER   1   ROW     8   COL     2   RATE    -12.2850    
 BOUNDARY    108   LAYER   1   ROW     8   COL     3   RATE   -100.0000    
 BOUNDARY    109   LAYER   1   ROW     8   COL     4   RATE   -100.0000    
 BOUNDARY    110   LAYER   1   ROW     8   COL     5   RATE   -100.0000    
 BOUNDARY    111   LAYER   1   ROW     8   COL     6   RATE   -100.0000    
 BOUNDARY    112   LAYER   1   ROW     8   COL     7   RATE   -100.0000    
 BOUNDARY    113   LAYER   1   ROW     8   COL     8   RATE   -100.0000    
 BOUNDARY    114   LAYER   1   ROW     8   COL     9   RATE   -100.0000    
 BOUNDARY    115   LAYER   1   ROW     8   COL    10   RATE   -100.0000    
 BOUNDARY    116   LAYER   1   ROW     8   COL    11   RATE   -100.0000    
 BOUNDARY    117   LAYER   1   ROW     8   COL    12   RATE    -28.1632    
 BOUNDARY    118   LAYER   1   ROW     8   COL    13   RATE    -3.83226    
 BOUNDARY    119   LAYER   1   ROW     8   COL    14   RATE     0.00000    
 BOUNDARY    120   LAYER   1   ROW     8   COL    15   RATE     0.00000    
 BOUNDARY    121   LAYER   1   ROW     9   COL     1   RATE    -19.8745    
 BOUNDARY    122   LAYER   1   ROW     9   COL     2   RATE    -65.9517    
 BOUNDARY    123   LAYER   1   ROW     9   COL     3   RATE   -100.0000    
 BOUNDARY    124   LAYER   1   ROW     9   COL     4   RATE   -100.0000    
 BOUNDARY    125   LAYER   1   ROW     9   COL     5   RATE   -100.0000    
 BOUNDARY    126   LAYER   1   ROW     9   COL     6   RATE   -100.0000    
 BOUNDARY    127   LAYER   1   ROW     9   COL     7   RATE   -100.0000    
 BOUNDARY    128   LAYER   1   ROW     9   COL     8   RATE   -100.0000    
 BOUNDARY    129   LAYER   1   ROW     9   COL     9   RATE   -100.0000    
 BOUNDARY    130   LAYER   1   ROW     9   COL    10   RATE   -100.0000    
 BOUNDARY    131   LAYER   1   ROW     9   COL    11   RATE   -100.0000    
 BOUNDARY    132   LAYER   1   ROW     9   COL    12   RATE    -29.2806    
 BOUNDARY    133   LAYER   1   ROW     9   COL    13   RATE    -4.67753    
 BOUNDARY    134   LAYER   1   ROW     9   COL    14   RATE     0.00000    
 BOUNDARY    135   LAYER   1   ROW     9   COL    15   RATE     0.00000    
 BOUNDARY    136   LAYER   1   ROW    10   COL     1   RATE    -74.1571    
 BOUNDARY    137   LAYER   1   ROW    10   COL     2   RATE   -100.0000    
 BOUNDARY    138   LAYER   1   ROW    10   COL     3   RATE   -100.0000    
 BOUNDARY    139   LAYER   1   ROW    10   COL     4   RATE   -100.0000    
 BOUNDARY    140   LAYER   1   ROW    10   COL     5   RATE   -100.0000    
 BOUNDARY    141   LAYER   1   ROW    10   COL     6   RATE   -100.0000    
 BOUNDARY    142   LAYER   1   ROW    10   COL     7   RATE   -100.0000    
 BOUNDARY    143   LAYER   1   ROW    10   COL     8   RATE   -100.0000    
 BOUNDARY    144   LAYER   1   ROW    10   COL     9   RATE   -100.0000    
 BOUNDARY    145   LAYER   1   ROW    10   COL    10   RATE   -100.0000    
 BOUNDARY    146   LAYER   1   ROW    10   COL    11   RATE   -100.0000    
 BOUNDARY    147   LAYER   1   ROW    10   COL    12   RATE    -30.4501    
 BOUNDARY    148   LAYER   1   ROW    10   COL    13   RATE    -5.21676    
 BOUNDARY    149   LAYER   1   ROW    10   COL    14   RATE     0.00000    
 BOUNDARY    150   LAYER   1   ROW    10   COL    15   RATE     0.00000    

 HEAD WILL BE SAVED ON UNIT 1017 AT END OF TIME STEP   10, STRESS PERIOD    4
WEL   no.    1 value from time series:   0.0000     for time:  70.00     to  71.00    
WEL   no.    2 value from time series:   0.0000     for time:  70.00     to  71.00    
RIV   no.    1 value from time series:   101.00     for time:  70.00     to  71.00    
RIV   no.    2 value from time series:   101.00     for time:  70.00     to  71.00    
RIV   no.    3 value from time series:   111.50     for time:  70.00     to  71.00    
RIV   no.    4 value from time series:   111.50     for time:  70.00     to  71.00    
RIV   no.    5 value from time series:   115.10     for time:  70.00     to  71.00    
RIV   no.    6 value from time series:   115.10     for time:  70.00     to  71.00    
RIV   no.    7 value from time series:   104.00     for time:  70.00     to  71.00    
RIV   no.    8 value from time series:   104.00     for time:  70.00     to  71.00    
RIV   no.    9 value from time series:   113.50     for time:  70.00     to  71.00    
RIV   no.   10 value from time series:   113.50     for time:  70.00     to  71.00    
WEL   no.    1 value from time series:   0.0000     for time:  70.00     to  71.00    
WEL   no.    2 value from time series:   0.0000     for time:  70.00     to  71.00    
RIV   no.    1 value from time series:   101.00     for time:  70.00     to  71.00    
RIV   no.    2 value from time series:   101.00     for time:  70.00     to  71.00    
RIV   no.    3 value from time series:   111.50     for time:  70.00     to  71.00    
RIV   no.    4 value from time series:   111.50     for time:  70.00     to  71.00    
RIV   no.    5 value from time series:   115.10     for time:  70.00     to  71.00    
RIV   no.    6 value from time series:   115.10     for time:  70.00     to  71.00    
RIV   no.    7 value from time series:   104.00     for time:  70.00     to  71.00    
RIV   no.    8 value from time series:   104.00     for time:  70.00     to  71.00    
RIV   no.    9 value from time series:   113.50     for time:  70.00     to  71.00    
RIV   no.   10 value from time series:   113.50     for time:  70.00     to  71.00    

 NO OUTPUT CONTROL FOR STRESS PERIOD    4   TIME STEP   11
WEL   no.    1 value from time series:   0.0000     for time:  71.00     to  72.00    
WEL   no.    2 value from time series:   0.0000     for time:  71.00     to  72.00    
RIV   no.    1 value from time series:   101.00     for time:  71.00     to  72.00    
RIV   no.    2 value from time series:   101.00     for time:  71.00     to  72.00    
RIV   no.    3 value from time series:   111.50     for time:  71.00     to  72.00    
RIV   no.    4 value from time series:   111.50     for time:  71.00     to  72.00    
RIV   no.    5 value from time series:   115.10     for time:  71.00     to  72.00    
RIV   no.    6 value from time series:   115.10     for time:  71.00     to  72.00    
RIV   no.    7 value from time series:   104.00     for time:  71.00     to  72.00    
RIV   no.    8 value from time series:   104.00     for time:  71.00     to  72.00    
RIV   no.    9 value from time series:   113.50     for time:  71.00     to  72.00    
RIV   no.   10 value from time series:   113.50     for time:  71.00     to  72.00    
WEL   no.    1 value from time series:   0.0000     for time:  71.00     to  72.00    
WEL   no.    2 value from time series:   0.0000     for time:  71.00     to  72.00    
RIV   no.    1 value from time series:   101.00     for time:  71.00     to  72.00    
RIV   no.    2 value from time series:   101.00     for time:  71.00     to  72.00    
RIV   no.    3 value from time series:   111.50     for time:  71.00     to  72.00    
RIV   no.    4 value from time series:   111.50     for time:  71.00     to  72.00    
RIV   no.    5 value from time series:   115.10     for time:  71.00     to  72.00    
RIV   no.    6 value from time series:   115.10     for time:  71.00     to  72.00    
RIV   no.    7 value from time series:   104.00     for time:  71.00     to  72.00    
RIV   no.    8 value from time series:   104.00     for time:  71.00     to  72.00    
RIV   no.    9 value from time series:   113.50     for time:  71.00     to  72.00    
RIV   no.   10 value from time series:   113.50     for time:  71.00     to  72.00    

 NO OUTPUT CONTROL FOR STRESS PERIOD    4   TIME STEP   12
WEL   no.    1 value from time series:   0.0000     for time:  72.00     to  73.00    
WEL   no.    2 value from time series:   0.0000     for time:  72.00     to  73.00    
RIV   no.    1 value from time series:   101.00     for time:  72.00     to  73.00    
RIV   no.    2 value from time series:   101.00     for time:  72.00     to  73.00    
RIV   no.    3 value from time series:   111.50     for time:  72.00     to  73.00    
RIV   no.    4 value from time series:   111.50     for time:  72.00     to  73.00    
RIV   no.    5 value from time series:   115.10     for time:  72.00     to  73.00    
RIV   no.    6 value from time series:   115.10     for time:  72.00     to  73.00    
RIV   no.    7 value from time series:   104.00     for time:  72.00     to  73.00    
RIV   no.    8 value from time series:   104.00     for time:  72.00     to  73.00    
RIV   no.    9 value from time series:   113.50     for time:  72.00     to  73.00    
RIV   no.   10 value from time series:   113.50     for time:  72.00     to  73.00    
WEL   no.    1 value from time series:   0.0000     for time:  72.00     to  73.00    
WEL   no.    2 value from time series:   0.0000     for time:  72.00     to  73.00    
RIV   no.    1 value from time series:   101.00     for time:  72.00     to  73.00    
RIV   no.    2 value from time series:   101.00     for time:  72.00     to  73.00    
RIV   no.    3 value from time series:   111.50     for time:  72.00     to  73.00    
RIV   no.    4 value from time series:   111.50     for time:  72.00     to  73.00    
RIV   no.    5 value from time series:   115.10     for time:  72.00     to  73.00    
RIV   no.    6 value from time series:   115.10     for time:  72.00     to  73.00    
RIV   no.    7 value from time series:   104.00     for time:  72.00     to  73.00    
RIV   no.    8 value from time series:   104.00     for time:  72.00     to  73.00    
RIV   no.    9 value from time series:   113.50     for time:  72.00     to  73.00    
RIV   no.   10 value from time series:   113.50     for time:  72.00     to  73.00    

 NO OUTPUT CONTROL FOR STRESS PERIOD    4   TIME STEP   13
WEL   no.    1 value from time series:   0.0000     for time:  73.00     to  74.00    
WEL   no.    2 value from time series:   0.0000     for time:  73.00     to  74.00    
RIV   no.    1 value from time series:   101.00     for time:  73.00     to  74.00    
RIV   no.    2 value from time series:   101.00     for time:  73.00     to  74.00    
RIV   no.    3 value from time series:   111.50     for time:  73.00     to  74.00    
RIV   no.    4 value from time series:   111.50     for time:  73.00     to  74.00    
RIV   no.    5 value from time series:   115.10     for time:  73.00     to  74.00    
RIV   no.    6 value from time series:   115.10     for time:  73.00     to  74.00    
RIV   no.    7 value from time series:   104.00     for time:  73.00     to  74.00    
RIV   no.    8 value from time series:   104.00     for time:  73.00     to  74.00    
RIV   no.    9 value from time series:   113.50     for time:  73.00     to  74.00    
RIV   no.   10 value from time series:   113.50     for time:  73.00     to  74.00    
WEL   no.    1 value from time series:   0.0000     for time:  73.00     to  74.00    
WEL   no.    2 value from time series:   0.0000     for time:  73.00     to  74.00    
RIV   no.    1 value from time series:   101.00     for time:  73.00     to  74.00    
RIV   no.    2 value from time series:   101.00     for time:  73.00     to  74.00    
RIV   no.    3 value from time series:   111.50     for time:  73.00     to  74.00    
RIV   no.    4 value from time series:   111.50     for time:  73.00     to  74.00    
RIV   no.    5 value from time series:   115.10     for time:  73.00     to  74.00    
RIV   no.    6 value from time series:   115.10     for time:  73.00     to  74.00    
RIV   no.    7 value from time series:   104.00     for time:  73.00     to  74.00    
RIV   no.    8 value from time series:   104.00     for time:  73.00     to  74.00    
RIV   no.    9 value from time series:   113.50     for time:  73.00     to  74.00    
RIV   no.   10 value from time series:   113.50     for time:  73.00     to  74.00    

 NO OUTPUT CONTROL FOR STRESS PERIOD    4   TIME STEP   14
WEL   no.    1 value from time series:   0.0000     for time:  74.00     to  75.00    
WEL   no.    2 value from time series:   0.0000     for time:  74.00     to  75.00    
RIV   no.    1 value from time series:   101.00     for time:  74.00     to  75.00    
RIV   no.    2 value from time series:   101.00     for time:  74.00     to  75.00    
RIV   no.    3 value from time series:   111.50     for time:  74.00     to  75.00    
RIV   no.    4 value from time series:   111.50     for time:  74.00     to  75.00    
RIV   no.    5 value from time series:   115.10     for time:  74.00     to  75.00    
RIV   no.    6 value from time series:   115.10     for time:  74.00     to  75.00    
RIV   no.    7 value from time series:   104.00     for time:  74.00     to  75.00    
RIV   no.    8 value from time series:   104.00     for time:  74.00     to  75.00    
RIV   no.    9 value from time series:   113.50     for time:  74.00     to  75.00    
RIV   no.   10 value from time series:   113.50     for time:  74.00     to  75.00    
WEL   no.    1 value from time series:   0.0000     for time:  74.00     to  75.00    
WEL   no.    2 value from time series:   0.0000     for time:  74.00     to  75.00    
RIV   no.    1 value from time series:   101.00     for time:  74.00     to  75.00    
RIV   no.    2 value from time series:   101.00     for time:  74.00     to  75.00    
RIV   no.    3 value from time series:   111.50     for time:  74.00     to  75.00    
RIV   no.    4 value from time series:   111.50     for time:  74.00     to  75.00    
RIV   no.    5 value from time series:   115.10     for time:  74.00     to  75.00    
RIV   no.    6 value from time series:   115.10     for time:  74.00     to  75.00    
RIV   no.    7 value from time series:   104.00     for time:  74.00     to  75.00    
RIV   no.    8 value from time series:   104.00     for time:  74.00     to  75.00    
RIV   no.    9 value from time series:   113.50     for time:  74.00     to  75.00    
RIV   no.   10 value from time series:   113.50     for time:  74.00     to  75.00    

 NO OUTPUT CONTROL FOR STRESS PERIOD    4   TIME STEP   15
WEL   no.    1 value from time series:   0.0000     for time:  75.00     to  76.00    
WEL   no.    2 value from time series:   0.0000     for time:  75.00     to  76.00    
RIV   no.    1 value from time series:   101.00     for time:  75.00     to  76.00    
RIV   no.    2 value from time series:   101.00     for time:  75.00     to  76.00    
RIV   no.    3 value from time series:   111.50     for time:  75.00     to  76.00    
RIV   no.    4 value from time series:   111.50     for time:  75.00     to  76.00    
RIV   no.    5 value from time series:   115.10     for time:  75.00     to  76.00    
RIV   no.    6 value from time series:   115.10     for time:  75.00     to  76.00    
RIV   no.    7 value from time series:   104.00     for time:  75.00     to  76.00    
RIV   no.    8 value from time series:   104.00     for time:  75.00     to  76.00    
RIV   no.    9 value from time series:   113.50     for time:  75.00     to  76.00    
RIV   no.   10 value from time series:   113.50     for time:  75.00     to  76.00    
WEL   no.    1 value from time series:   0.0000     for time:  75.00     to  76.00    
WEL   no.    2 value from time series:   0.0000     for time:  75.00     to  76.00    
RIV   no.    1 value from time series:   101.00     for time:  75.00     to  76.00    
RIV   no.    2 value from time series:   101.00     for time:  75.00     to  76.00    
RIV   no.    3 value from time series:   111.50     for time:  75.00     to  76.00    
RIV   no.    4 value from time series:   111.50     for time:  75.00     to  76.00    
RIV   no.    5 value from time series:   115.10     for time:  75.00     to  76.00    
RIV   no.    6 value from time series:   115.10     for time:  75.00     to  76.00    
RIV   no.    7 value from time series:   104.00     for time:  75.00     to  76.00    
RIV   no.    8 value from time series:   104.00     for time:  75.00     to  76.00    
RIV   no.    9 value from time series:   113.50     for time:  75.00     to  76.00    
RIV   no.   10 value from time series:   113.50     for time:  75.00     to  76.00    

 NO OUTPUT CONTROL FOR STRESS PERIOD    4   TIME STEP   16
WEL   no.    1 value from time series:   0.0000     for time:  76.00     to  77.00    
WEL   no.    2 value from time series:   0.0000     for time:  76.00     to  77.00    
RIV   no.    1 value from time series:   101.00     for time:  76.00     to  77.00    
RIV   no.    2 value from time series:   101.00     for time:  76.00     to  77.00    
RIV   no.    3 value from time series:   111.50     for time:  76.00     to  77.00    
RIV   no.    4 value from time series:   111.50     for time:  76.00     to  77.00    
RIV   no.    5 value from time series:   115.10     for time:  76.00     to  77.00    
RIV   no.    6 value from time series:   115.10     for time:  76.00     to  77.00    
RIV   no.    7 value from time series:   104.00     for time:  76.00     to  77.00    
RIV   no.    8 value from time series:   104.00     for time:  76.00     to  77.00    
RIV   no.    9 value from time series:   113.50     for time:  76.00     to  77.00    
RIV   no.   10 value from time series:   113.50     for time:  76.00     to  77.00    
WEL   no.    1 value from time series:   0.0000     for time:  76.00     to  77.00    
WEL   no.    2 value from time series:   0.0000     for time:  76.00     to  77.00    
RIV   no.    1 value from time series:   101.00     for time:  76.00     to  77.00    
RIV   no.    2 value from time series:   101.00     for time:  76.00     to  77.00    
RIV   no.    3 value from time series:   111.50     for time:  76.00     to  77.00    
RIV   no.    4 value from time series:   111.50     for time:  76.00     to  77.00    
RIV   no.    5 value from time series:   115.10     for time:  76.00     to  77.00    
RIV   no.    6 value from time series:   115.10     for time:  76.00     to  77.00    
RIV   no.    7 value from time series:   104.00     for time:  76.00     to  77.00    
RIV   no.    8 value from time series:   104.00     for time:  76.00     to  77.00    
RIV   no.    9 value from time series:   113.50     for time:  76.00     to  77.00    
RIV   no.   10 value from time series:   113.50     for time:  76.00     to  77.00    

 NO OUTPUT CONTROL FOR STRESS PERIOD    4   TIME STEP   17
WEL   no.    1 value from time series:   0.0000     for time:  77.00     to  78.00    
WEL   no.    2 value from time series:   0.0000     for time:  77.00     to  78.00    
RIV   no.    1 value from time series:   101.00     for time:  77.00     to  78.00    
RIV   no.    2 value from time series:   101.00     for time:  77.00     to  78.00    
RIV   no.    3 value from time series:   111.50     for time:  77.00     to  78.00    
RIV   no.    4 value from time series:   111.50     for time:  77.00     to  78.00    
RIV   no.    5 value from time series:   115.10     for time:  77.00     to  78.00    
RIV   no.    6 value from time series:   115.10     for time:  77.00     to  78.00    
RIV   no.    7 value from time series:   104.00     for time:  77.00     to  78.00    
RIV   no.    8 value from time series:   104.00     for time:  77.00     to  78.00    
RIV   no.    9 value from time series:   113.50     for time:  77.00     to  78.00    
RIV   no.   10 value from time series:   113.50     for time:  77.00     to  78.00    
WEL   no.    1 value from time series:   0.0000     for time:  77.00     to  78.00    
WEL   no.    2 value from time series:   0.0000     for time:  77.00     to  78.00    
RIV   no.    1 value from time series:   101.00     for time:  77.00     to  78.00    
RIV   no.    2 value from time series:   101.00     for time:  77.00     to  78.00    
RIV   no.    3 value from time series:   111.50     for time:  77.00     to  78.00    
RIV   no.    4 value from time series:   111.50     for time:  77.00     to  78.00    
RIV   no.    5 value from time series:   115.10     for time:  77.00     to  78.00    
RIV   no.    6 value from time series:   115.10     for time:  77.00     to  78.00    
RIV   no.    7 value from time series:   104.00     for time:  77.00     to  78.00    
RIV   no.    8 value from time series:   104.00     for time:  77.00     to  78.00    
RIV   no.    9 value from time series:   113.50     for time:  77.00     to  78.00    
RIV   no.   10 value from time series:   113.50     for time:  77.00     to  78.00    

 NO OUTPUT CONTROL FOR STRESS PERIOD    4   TIME STEP   18
WEL   no.    1 value from time series:   0.0000     for time:  78.00     to  79.00    
WEL   no.    2 value from time series:   0.0000     for time:  78.00     to  79.00    
RIV   no.    1 value from time series:   101.00     for time:  78.00     to  79.00    
RIV   no.    2 value from time series:   101.00     for time:  78.00     to  79.00    
RIV   no.    3 value from time series:   111.50     for time:  78.00     to  79.00    
RIV   no.    4 value from time series:   111.50     for time:  78.00     to  79.00    
RIV   no.    5 value from time series:   115.10     for time:  78.00     to  79.00    
RIV   no.    6 value from time series:   115.10     for time:  78.00     to  79.00    
RIV   no.    7 value from time series:   104.00     for time:  78.00     to  79.00    
RIV   no.    8 value from time series:   104.00     for time:  78.00     to  79.00    
RIV   no.    9 value from time series:   113.50     for time:  78.00     to  79.00    
RIV   no.   10 value from time series:   113.50     for time:  78.00     to  79.00    
WEL   no.    1 value from time series:   0.0000     for time:  78.00     to  79.00    
WEL   no.    2 value from time series:   0.0000     for time:  78.00     to  79.00    
RIV   no.    1 value from time series:   101.00     for time:  78.00     to  79.00    
RIV   no.    2 value from time series:   101.00     for time:  78.00     to  79.00    
RIV   no.    3 value from time series:   111.50     for time:  78.00     to  79.00    
RIV   no.    4 value from time series:   111.50     for time:  78.00     to  79.00    
RIV   no.    5 value from time series:   115.10     for time:  78.00     to  79.00    
RIV   no.    6 value from time series:   115.10     for time:  78.00     to  79.00    
RIV   no.    7 value from time series:   104.00     for time:  78.00     to  79.00    
RIV   no.    8 value from time series:   104.00     for time:  78.00     to  79.00    
RIV   no.    9 value from time series:   113.50     for time:  78.00     to  79.00    
RIV   no.   10 value from time series:   113.50     for time:  78.00     to  79.00    

 NO OUTPUT CONTROL FOR STRESS PERIOD    4   TIME STEP   19
WEL   no.    1 value from time series:   0.0000     for time:  79.00     to  80.00    
WEL   no.    2 value from time series:   0.0000     for time:  79.00     to  80.00    
RIV   no.    1 value from time series:   101.00     for time:  79.00     to  80.00    
RIV   no.    2 value from time series:   101.00     for time:  79.00     to  80.00    
RIV   no.    3 value from time series:   111.50     for time:  79.00     to  80.00    
RIV   no.    4 value from time series:   111.50     for time:  79.00     to  80.00    
RIV   no.    5 value from time series:   115.10     for time:  79.00     to  80.00    
RIV   no.    6 value from time series:   115.10     for time:  79.00     to  80.00    
RIV   no.    7 value from time series:   104.00     for time:  79.00     to  80.00    
RIV   no.    8 value from time series:   104.00     for time:  79.00     to  80.00    
RIV   no.    9 value from time series:   113.50     for time:  79.00     to  80.00    
RIV   no.   10 value from time series:   113.50     for time:  79.00     to  80.00    
WEL   no.    1 value from time series:   0.0000     for time:  79.00     to  80.00    
WEL   no.    2 value from time series:   0.0000     for time:  79.00     to  80.00    
RIV   no.    1 value from time series:   101.00     for time:  79.00     to  80.00    
RIV   no.    2 value from time series:   101.00     for time:  79.00     to  80.00    
RIV   no.    3 value from time series:   111.50     for time:  79.00     to  80.00    
RIV   no.    4 value from time series:   111.50     for time:  79.00     to  80.00    
RIV   no.    5 value from time series:   115.10     for time:  79.00     to  80.00    
RIV   no.    6 value from time series:   115.10     for time:  79.00     to  80.00    
RIV   no.    7 value from time series:   104.00     for time:  79.00     to  80.00    
RIV   no.    8 value from time series:   104.00     for time:  79.00     to  80.00    
RIV   no.    9 value from time series:   113.50     for time:  79.00     to  80.00    
RIV   no.   10 value from time series:   113.50     for time:  79.00     to  80.00    

 NO OUTPUT CONTROL FOR STRESS PERIOD    4   TIME STEP   20
WEL   no.    1 value from time series:   0.0000     for time:  80.00     to  81.00    
WEL   no.    2 value from time series:   0.0000     for time:  80.00     to  81.00    
RIV   no.    1 value from time series:   101.00     for time:  80.00     to  81.00    
RIV   no.    2 value from time series:   101.00     for time:  80.00     to  81.00    
RIV   no.    3 value from time series:   111.50     for time:  80.00     to  81.00    
RIV   no.    4 value from time series:   111.50     for time:  80.00     to  81.00    
RIV   no.    5 value from time series:   115.10     for time:  80.00     to  81.00    
RIV   no.    6 value from time series:   115.10     for time:  80.00     to  81.00    
RIV   no.    7 value from time series:   104.00     for time:  80.00     to  81.00    
RIV   no.    8 value from time series:   104.00     for time:  80.00     to  81.00    
RIV   no.    9 value from time series:   113.50     for time:  80.00     to  81.00    
RIV   no.   10 value from time series:   113.50     for time:  80.00     to  81.00    
WEL   no.    1 value from time series:   0.0000     for time:  80.00     to  81.00    
WEL   no.    2 value from time series:   0.0000     for time:  80.00     to  81.00    
RIV   no.    1 value from time series:   101.00     for time:  80.00     to  81.00    
RIV   no.    2 value from time series:   101.00     for time:  80.00     to  81.00    
RIV   no.    3 value from time series:   111.50     for time:  80.00     to  81.00    
RIV   no.    4 value from time series:   111.50     for time:  80.00     to  81.00    
RIV   no.    5 value from time series:   115.10     for time:  80.00     to  81.00    
RIV   no.    6 value from time series:   115.10     for time:  80.00     to  81.00    
RIV   no.    7 value from time series:   104.00     for time:  80.00     to  81.00    
RIV   no.    8 value from time series:   104.00     for time:  80.00     to  81.00    
RIV   no.    9 value from time series:   113.50     for time:  80.00     to  81.00    
RIV   no.   10 value from time series:   113.50     for time:  80.00     to  81.00    

 NO OUTPUT CONTROL FOR STRESS PERIOD    4   TIME STEP   21
WEL   no.    1 value from time series:   0.0000     for time:  81.00     to  82.00    
WEL   no.    2 value from time series:   0.0000     for time:  81.00     to  82.00    
RIV   no.    1 value from time series:   101.00     for time:  81.00     to  82.00    
RIV   no.    2 value from time series:   101.00     for time:  81.00     to  82.00    
RIV   no.    3 value from time series:   111.50     for time:  81.00     to  82.00    
RIV   no.    4 value from time series:   111.50     for time:  81.00     to  82.00    
RIV   no.    5 value from time series:   115.10     for time:  81.00     to  82.00    
RIV   no.    6 value from time series:   115.10     for time:  81.00     to  82.00    
RIV   no.    7 value from time series:   104.00     for time:  81.00     to  82.00    
RIV   no.    8 value from time series:   104.00     for time:  81.00     to  82.00    
RIV   no.    9 value from time series:   113.50     for time:  81.00     to  82.00    
RIV   no.   10 value from time series:   113.50     for time:  81.00     to  82.00    
WEL   no.    1 value from time series:   0.0000     for time:  81.00     to  82.00    
WEL   no.    2 value from time series:   0.0000     for time:  81.00     to  82.00    
RIV   no.    1 value from time series:   101.00     for time:  81.00     to  82.00    
RIV   no.    2 value from time series:   101.00     for time:  81.00     to  82.00    
RIV   no.    3 value from time series:   111.50     for time:  81.00     to  82.00    
RIV   no.    4 value from time series:   111.50     for time:  81.00     to  82.00    
RIV   no.    5 value from time series:   115.10     for time:  81.00     to  82.00    
RIV   no.    6 value from time series:   115.10     for time:  81.00     to  82.00    
RIV   no.    7 value from time series:   104.00     for time:  81.00     to  82.00    
RIV   no.    8 value from time series:   104.00     for time:  81.00     to  82.00    
RIV   no.    9 value from time series:   113.50     for time:  81.00     to  82.00    
RIV   no.   10 value from time series:   113.50     for time:  81.00     to  82.00    

 NO OUTPUT CONTROL FOR STRESS PERIOD    4   TIME STEP   22
WEL   no.    1 value from time series:   0.0000     for time:  82.00     to  83.00    
WEL   no.    2 value from time series:   0.0000     for time:  82.00     to  83.00    
RIV   no.    1 value from time series:   101.00     for time:  82.00     to  83.00    
RIV   no.    2 value from time series:   101.00     for time:  82.00     to  83.00    
RIV   no.    3 value from time series:   111.50     for time:  82.00     to  83.00    
RIV   no.    4 value from time series:   111.50     for time:  82.00     to  83.00    
RIV   no.    5 value from time series:   115.10     for time:  82.00     to  83.00    
RIV   no.    6 value from time series:   115.10     for time:  82.00     to  83.00    
RIV   no.    7 value from time series:   104.00     for time:  82.00     to  83.00    
RIV   no.    8 value from time series:   104.00     for time:  82.00     to  83.00    
RIV   no.    9 value from time series:   113.50     for time:  82.00     to  83.00    
RIV   no.   10 value from time series:   113.50     for time:  82.00     to  83.00    
WEL   no.    1 value from time series:   0.0000     for time:  82.00     to  83.00    
WEL   no.    2 value from time series:   0.0000     for time:  82.00     to  83.00    
RIV   no.    1 value from time series:   101.00     for time:  82.00     to  83.00    
RIV   no.    2 value from time series:   101.00     for time:  82.00     to  83.00    
RIV   no.    3 value from time series:   111.50     for time:  82.00     to  83.00    
RIV   no.    4 value from time series:   111.50     for time:  82.00     to  83.00    
RIV   no.    5 value from time series:   115.10     for time:  82.00     to  83.00    
RIV   no.    6 value from time series:   115.10     for time:  82.00     to  83.00    
RIV   no.    7 value from time series:   104.00     for time:  82.00     to  83.00    
RIV   no.    8 value from time series:   104.00     for time:  82.00     to  83.00    
RIV   no.    9 value from time series:   113.50     for time:  82.00     to  83.00    
RIV   no.   10 value from time series:   113.50     for time:  82.00     to  83.00    

 NO OUTPUT CONTROL FOR STRESS PERIOD    4   TIME STEP   23
WEL   no.    1 value from time series:   0.0000     for time:  83.00     to  84.00    
WEL   no.    2 value from time series:   0.0000     for time:  83.00     to  84.00    
RIV   no.    1 value from time series:   101.00     for time:  83.00     to  84.00    
RIV   no.    2 value from time series:   101.00     for time:  83.00     to  84.00    
RIV   no.    3 value from time series:   111.50     for time:  83.00     to  84.00    
RIV   no.    4 value from time series:   111.50     for time:  83.00     to  84.00    
RIV   no.    5 value from time series:   115.10     for time:  83.00     to  84.00    
RIV   no.    6 value from time series:   115.10     for time:  83.00     to  84.00    
RIV   no.    7 value from time series:   104.00     for time:  83.00     to  84.00    
RIV   no.    8 value from time series:   104.00     for time:  83.00     to  84.00    
RIV   no.    9 value from time series:   113.50     for time:  83.00     to  84.00    
RIV   no.   10 value from time series:   113.50     for time:  83.00     to  84.00    
WEL   no.    1 value from time series:   0.0000     for time:  83.00     to  84.00    
WEL   no.    2 value from time series:   0.0000     for time:  83.00     to  84.00    
RIV   no.    1 value from time series:   101.00     for time:  83.00     to  84.00    
RIV   no.    2 value from time series:   101.00     for time:  83.00     to  84.00    
RIV   no.    3 value from time series:   111.50     for time:  83.00     to  84.00    
RIV   no.    4 value from time series:   111.50     for time:  83.00     to  84.00    
RIV   no.    5 value from time series:   115.10     for time:  83.00     to  84.00    
RIV   no.    6 value from time series:   115.10     for time:  83.00     to  84.00    
RIV   no.    7 value from time series:   104.00     for time:  83.00     to  84.00    
RIV   no.    8 value from time series:   104.00     for time:  83.00     to  84.00    
RIV   no.    9 value from time series:   113.50     for time:  83.00     to  84.00    
RIV   no.   10 value from time series:   113.50     for time:  83.00     to  84.00    

 NO OUTPUT CONTROL FOR STRESS PERIOD    4   TIME STEP   24
WEL   no.    1 value from time series:   0.0000     for time:  84.00     to  85.00    
WEL   no.    2 value from time series:   0.0000     for time:  84.00     to  85.00    
RIV   no.    1 value from time series:   101.00     for time:  84.00     to  85.00    
RIV   no.    2 value from time series:   101.00     for time:  84.00     to  85.00    
RIV   no.    3 value from time series:   111.50     for time:  84.00     to  85.00    
RIV   no.    4 value from time series:   111.50     for time:  84.00     to  85.00    
RIV   no.    5 value from time series:   115.10     for time:  84.00     to  85.00    
RIV   no.    6 value from time series:   115.10     for time:  84.00     to  85.00    
RIV   no.    7 value from time series:   104.00     for time:  84.00     to  85.00    
RIV   no.    8 value from time series:   104.00     for time:  84.00     to  85.00    
RIV   no.    9 value from time series:   113.50     for time:  84.00     to  85.00    
RIV   no.   10 value from time series:   113.50     for time:  84.00     to  85.00    
WEL   no.    1 value from time series:   0.0000     for time:  84.00     to  85.00    
WEL   no.    2 value from time series:   0.0000     for time:  84.00     to  85.00    
RIV   no.    1 value from time series:   101.00     for time:  84.00     to  85.00    
RIV   no.    2 value from time series:   101.00     for time:  84.00     to  85.00    
RIV   no.    3 value from time series:   111.50     for time:  84.00     to  85.00    
RIV   no.    4 value from time series:   111.50     for time:  84.00     to  85.00    
RIV   no.    5 value from time series:   115.10     for time:  84.00     to  85.00    
RIV   no.    6 value from time series:   115.10     for time:  84.00     to  85.00    
RIV   no.    7 value from time series:   104.00     for time:  84.00     to  85.00    
RIV   no.    8 value from time series:   104.00     for time:  84.00     to  85.00    
RIV   no.    9 value from time series:   113.50     for time:  84.00     to  85.00    
RIV   no.   10 value from time series:   113.50     for time:  84.00     to  85.00    

 NO OUTPUT CONTROL FOR STRESS PERIOD    4   TIME STEP   25
WEL   no.    1 value from time series:   0.0000     for time:  85.00     to  86.00    
WEL   no.    2 value from time series:   0.0000     for time:  85.00     to  86.00    
RIV   no.    1 value from time series:   101.00     for time:  85.00     to  86.00    
RIV   no.    2 value from time series:   101.00     for time:  85.00     to  86.00    
RIV   no.    3 value from time series:   111.50     for time:  85.00     to  86.00    
RIV   no.    4 value from time series:   111.50     for time:  85.00     to  86.00    
RIV   no.    5 value from time series:   115.10     for time:  85.00     to  86.00    
RIV   no.    6 value from time series:   115.10     for time:  85.00     to  86.00    
RIV   no.    7 value from time series:   104.00     for time:  85.00     to  86.00    
RIV   no.    8 value from time series:   104.00     for time:  85.00     to  86.00    
RIV   no.    9 value from time series:   113.50     for time:  85.00     to  86.00    
RIV   no.   10 value from time series:   113.50     for time:  85.00     to  86.00    
WEL   no.    1 value from time series:   0.0000     for time:  85.00     to  86.00    
WEL   no.    2 value from time series:   0.0000     for time:  85.00     to  86.00    
RIV   no.    1 value from time series:   101.00     for time:  85.00     to  86.00    
RIV   no.    2 value from time series:   101.00     for time:  85.00     to  86.00    
RIV   no.    3 value from time series:   111.50     for time:  85.00     to  86.00    
RIV   no.    4 value from time series:   111.50     for time:  85.00     to  86.00    
RIV   no.    5 value from time series:   115.10     for time:  85.00     to  86.00    
RIV   no.    6 value from time series:   115.10     for time:  85.00     to  86.00    
RIV   no.    7 value from time series:   104.00     for time:  85.00     to  86.00    
RIV   no.    8 value from time series:   104.00     for time:  85.00     to  86.00    
RIV   no.    9 value from time series:   113.50     for time:  85.00     to  86.00    
RIV   no.   10 value from time series:   113.50     for time:  85.00     to  86.00    

 NO OUTPUT CONTROL FOR STRESS PERIOD    4   TIME STEP   26
WEL   no.    1 value from time series:   0.0000     for time:  86.00     to  87.00    
WEL   no.    2 value from time series:   0.0000     for time:  86.00     to  87.00    
RIV   no.    1 value from time series:   101.00     for time:  86.00     to  87.00    
RIV   no.    2 value from time series:   101.00     for time:  86.00     to  87.00    
RIV   no.    3 value from time series:   111.50     for time:  86.00     to  87.00    
RIV   no.    4 value from time series:   111.50     for time:  86.00     to  87.00    
RIV   no.    5 value from time series:   115.10     for time:  86.00     to  87.00    
RIV   no.    6 value from time series:   115.10     for time:  86.00     to  87.00    
RIV   no.    7 value from time series:   104.00     for time:  86.00     to  87.00    
RIV   no.    8 value from time series:   104.00     for time:  86.00     to  87.00    
RIV   no.    9 value from time series:   113.50     for time:  86.00     to  87.00    
RIV   no.   10 value from time series:   113.50     for time:  86.00     to  87.00    
WEL   no.    1 value from time series:   0.0000     for time:  86.00     to  87.00    
WEL   no.    2 value from time series:   0.0000     for time:  86.00     to  87.00    
RIV   no.    1 value from time series:   101.00     for time:  86.00     to  87.00    
RIV   no.    2 value from time series:   101.00     for time:  86.00     to  87.00    
RIV   no.    3 value from time series:   111.50     for time:  86.00     to  87.00    
RIV   no.    4 value from time series:   111.50     for time:  86.00     to  87.00    
RIV   no.    5 value from time series:   115.10     for time:  86.00     to  87.00    
RIV   no.    6 value from time series:   115.10     for time:  86.00     to  87.00    
RIV   no.    7 value from time series:   104.00     for time:  86.00     to  87.00    
RIV   no.    8 value from time series:   104.00     for time:  86.00     to  87.00    
RIV   no.    9 value from time series:   113.50     for time:  86.00     to  87.00    
RIV   no.   10 value from time series:   113.50     for time:  86.00     to  87.00    

 NO OUTPUT CONTROL FOR STRESS PERIOD    4   TIME STEP   27
WEL   no.    1 value from time series:   0.0000     for time:  87.00     to  88.00    
WEL   no.    2 value from time series:   0.0000     for time:  87.00     to  88.00    
RIV   no.    1 value from time series:   101.00     for time:  87.00     to  88.00    
RIV   no.    2 value from time series:   101.00     for time:  87.00     to  88.00    
RIV   no.    3 value from time series:   111.50     for time:  87.00     to  88.00    
RIV   no.    4 value from time series:   111.50     for time:  87.00     to  88.00    
RIV   no.    5 value from time series:   115.10     for time:  87.00     to  88.00    
RIV   no.    6 value from time series:   115.10     for time:  87.00     to  88.00    
RIV   no.    7 value from time series:   104.00     for time:  87.00     to  88.00    
RIV   no.    8 value from time series:   104.00     for time:  87.00     to  88.00    
RIV   no.    9 value from time series:   113.50     for time:  87.00     to  88.00    
RIV   no.   10 value from time series:   113.50     for time:  87.00     to  88.00    
WEL   no.    1 value from time series:   0.0000     for time:  87.00     to  88.00    
WEL   no.    2 value from time series:   0.0000     for time:  87.00     to  88.00    
RIV   no.    1 value from time series:   101.00     for time:  87.00     to  88.00    
RIV   no.    2 value from time series:   101.00     for time:  87.00     to  88.00    
RIV   no.    3 value from time series:   111.50     for time:  87.00     to  88.00    
RIV   no.    4 value from time series:   111.50     for time:  87.00     to  88.00    
RIV   no.    5 value from time series:   115.10     for time:  87.00     to  88.00    
RIV   no.    6 value from time series:   115.10     for time:  87.00     to  88.00    
RIV   no.    7 value from time series:   104.00     for time:  87.00     to  88.00    
RIV   no.    8 value from time series:   104.00     for time:  87.00     to  88.00    
RIV   no.    9 value from time series:   113.50     for time:  87.00     to  88.00    
RIV   no.   10 value from time series:   113.50     for time:  87.00     to  88.00    

 NO OUTPUT CONTROL FOR STRESS PERIOD    4   TIME STEP   28
WEL   no.    1 value from time series:   0.0000     for time:  88.00     to  89.00    
WEL   no.    2 value from time series:   0.0000     for time:  88.00     to  89.00    
RIV   no.    1 value from time series:   101.00     for time:  88.00     to  89.00    
RIV   no.    2 value from time series:   101.00     for time:  88.00     to  89.00    
RIV   no.    3 value from time series:   111.50     for time:  88.00     to  89.00    
RIV   no.    4 value from time series:   111.50     for time:  88.00     to  89.00    
RIV   no.    5 value from time series:   115.10     for time:  88.00     to  89.00    
RIV   no.    6 value from time series:   115.10     for time:  88.00     to  89.00    
RIV   no.    7 value from time series:   104.00     for time:  88.00     to  89.00    
RIV   no.    8 value from time series:   104.00     for time:  88.00     to  89.00    
RIV   no.    9 value from time series:   113.50     for time:  88.00     to  89.00    
RIV   no.   10 value from time series:   113.50     for time:  88.00     to  89.00    
WEL   no.    1 value from time series:   0.0000     for time:  88.00     to  89.00    
WEL   no.    2 value from time series:   0.0000     for time:  88.00     to  89.00    
RIV   no.    1 value from time series:   101.00     for time:  88.00     to  89.00    
RIV   no.    2 value from time series:   101.00     for time:  88.00     to  89.00    
RIV   no.    3 value from time series:   111.50     for time:  88.00     to  89.00    
RIV   no.    4 value from time series:   111.50     for time:  88.00     to  89.00    
RIV   no.    5 value from time series:   115.10     for time:  88.00     to  89.00    
RIV   no.    6 value from time series:   115.10     for time:  88.00     to  89.00    
RIV   no.    7 value from time series:   104.00     for time:  88.00     to  89.00    
RIV   no.    8 value from time series:   104.00     for time:  88.00     to  89.00    
RIV   no.    9 value from time series:   113.50     for time:  88.00     to  89.00    
RIV   no.   10 value from time series:   113.50     for time:  88.00     to  89.00    

 NO OUTPUT CONTROL FOR STRESS PERIOD    4   TIME STEP   29
WEL   no.    1 value from time series:   0.0000     for time:  89.00     to  90.00    
WEL   no.    2 value from time series:   0.0000     for time:  89.00     to  90.00    
RIV   no.    1 value from time series:   101.00     for time:  89.00     to  90.00    
RIV   no.    2 value from time series:   101.00     for time:  89.00     to  90.00    
RIV   no.    3 value from time series:   111.50     for time:  89.00     to  90.00    
RIV   no.    4 value from time series:   111.50     for time:  89.00     to  90.00    
RIV   no.    5 value from time series:   115.10     for time:  89.00     to  90.00    
RIV   no.    6 value from time series:   115.10     for time:  89.00     to  90.00    
RIV   no.    7 value from time series:   104.00     for time:  89.00     to  90.00    
RIV   no.    8 value from time series:   104.00     for time:  89.00     to  90.00    
RIV   no.    9 value from time series:   113.50     for time:  89.00     to  90.00    
RIV   no.   10 value from time series:   113.50     for time:  89.00     to  90.00    
WEL   no.    1 value from time series:   0.0000     for time:  89.00     to  90.00    
WEL   no.    2 value from time series:   0.0000     for time:  89.00     to  90.00    
RIV   no.    1 value from time series:   101.00     for time:  89.00     to  90.00    
RIV   no.    2 value from time series:   101.00     for time:  89.00     to  90.00    
RIV   no.    3 value from time series:   111.50     for time:  89.00     to  90.00    
RIV   no.    4 value from time series:   111.50     for time:  89.00     to  90.00    
RIV   no.    5 value from time series:   115.10     for time:  89.00     to  90.00    
RIV   no.    6 value from time series:   115.10     for time:  89.00     to  90.00    
RIV   no.    7 value from time series:   104.00     for time:  89.00     to  90.00    
RIV   no.    8 value from time series:   104.00     for time:  89.00     to  90.00    
RIV   no.    9 value from time series:   113.50     for time:  89.00     to  90.00    
RIV   no.   10 value from time series:   113.50     for time:  89.00     to  90.00    

 NO OUTPUT CONTROL FOR STRESS PERIOD    4   TIME STEP   30
WEL   no.    1 value from time series:   0.0000     for time:  90.00     to  91.00    
WEL   no.    2 value from time series:   0.0000     for time:  90.00     to  91.00    
RIV   no.    1 value from time series:   101.00     for time:  90.00     to  91.00    
RIV   no.    2 value from time series:   101.00     for time:  90.00     to  91.00    
RIV   no.    3 value from time series:   111.50     for time:  90.00     to  91.00    
RIV   no.    4 value from time series:   111.50     for time:  90.00     to  91.00    
RIV   no.    5 value from time series:   115.10     for time:  90.00     to  91.00    
RIV   no.    6 value from time series:   115.10     for time:  90.00     to  91.00    
RIV   no.    7 value from time series:   104.00     for time:  90.00     to  91.00    
RIV   no.    8 value from time series:   104.00     for time:  90.00     to  91.00    
RIV   no.    9 value from time series:   113.50     for time:  90.00     to  91.00    
RIV   no.   10 value from time series:   113.50     for time:  90.00     to  91.00    
WEL   no.    1 value from time series:   0.0000     for time:  90.00     to  91.00    
WEL   no.    2 value from time series:   0.0000     for time:  90.00     to  91.00    
RIV   no.    1 value from time series:   101.00     for time:  90.00     to  91.00    
RIV   no.    2 value from time series:   101.00     for time:  90.00     to  91.00    
RIV   no.    3 value from time series:   111.50     for time:  90.00     to  91.00    
RIV   no.    4 value from time series:   111.50     for time:  90.00     to  91.00    
RIV   no.    5 value from time series:   115.10     for time:  90.00     to  91.00    
RIV   no.    6 value from time series:   115.10     for time:  90.00     to  91.00    
RIV   no.    7 value from time series:   104.00     for time:  90.00     to  91.00    
RIV   no.    8 value from time series:   104.00     for time:  90.00     to  91.00    
RIV   no.    9 value from time series:   113.50     for time:  90.00     to  91.00    
RIV   no.   10 value from time series:   113.50     for time:  90.00     to  91.00    

 OUTPUT CONTROL FOR STRESS PERIOD    4   TIME STEP   31
    PRINT BUDGET
    SAVE BUDGET
    SAVE HEAD
    SAVE HEAD FOR ALL LAYERS
 UBDSV1 SAVING          STORAGE ON UNIT   1016 AT TIME STEP     31, STRESS PERIOD      4
 UBDSV1 SAVING FLOW RIGHT FACE  ON UNIT   1016 AT TIME STEP     31, STRESS PERIOD      4
 UBDSV1 SAVING FLOW FRONT FACE  ON UNIT   1016 AT TIME STEP     31, STRESS PERIOD      4
 UBDSV1 SAVING FLOW LOWER FACE  ON UNIT   1016 AT TIME STEP     31, STRESS PERIOD      4
 UBDSV4 SAVING WELLS NEAR RIVER ON UNIT   1016 AT TIME STEP     31, STRESS PERIOD      4

 WELLS NEAR RIVER   PERIOD  4   STEP 31
 BOUNDARY      1   LAYER   2   ROW     8   COL     4   RATE     0.00000      WELL_2
 BOUNDARY      2   LAYER   2   ROW     3   COL     4   RATE     0.00000      WELL_1
 UBDSV4 SAVING RIVER            ON UNIT   1016 AT TIME STEP     31, STRESS PERIOD      4

 RIVER              PERIOD  4   STEP 31
 BOUNDARY      1   LAYER   1   ROW     1   COL    15   RATE    -4868.20    
 BOUNDARY      2   LAYER   1   ROW     2   COL    15   RATE    -5991.81      RIV2
 BOUNDARY      3   LAYER   1   ROW     3   COL    15   RATE    -2257.46      RIV3
 BOUNDARY      4   LAYER   1   ROW     4   COL    15   RATE    -3720.46    
 BOUNDARY      5   LAYER   1   ROW     5   COL    15   RATE    -2358.96    
 BOUNDARY      6   LAYER   1   ROW     6   COL    15   RATE    -1707.07    
 BOUNDARY      7   LAYER   1   ROW     7   COL    15   RATE    -6188.58      RIVX
 BOUNDARY      8   LAYER   1   ROW     8   COL    15   RATE    -6035.86      RIVX
 BOUNDARY      9   LAYER   1   ROW     9   COL    15   RATE    -2244.95      RIVX
 BOUNDARY     10   LAYER   1   ROW    10   COL    15   RATE    -3148.97    

 GHB LAKES          PERIOD  4   STEP 31
 BOUNDARY      1   LAYER   1   ROW     3   COL     1   RATE    -14696.5    
 BOUNDARY      2   LAYER   1   ROW     7   COL     1   RATE    -2019.97      GHB2_UPPER
 BOUNDARY      3   LAYER   1   ROW     7   COL     1   RATE    -13299.2      GHB2_LOWER
 UBDSV4 SAVING RECHARGE         ON UNIT   1016 AT TIME STEP     31, STRESS PERIOD      4

 RECHARGE           PERIOD  4   STEP 31
 BOUNDARY      1   LAYER   1   ROW     1   COL     1   RATE     726.667    
 BOUNDARY      2   LAYER   1   ROW     1   COL     2   RATE     726.667    
 BOUNDARY      3   LAYER   1   ROW     1   COL     3   RATE     726.667    
 BOUNDARY      4   LAYER   1   ROW     1   COL     4   RATE     726.667    
 BOUNDARY      5   LAYER   1   ROW     1   COL     5   RATE     726.667    
 BOUNDARY      6   LAYER   1   ROW     1   COL     6   RATE     726.667    
 BOUNDARY      7   LAYER   1   ROW     1   COL     7   RATE     726.667    
 BOUNDARY      8   LAYER   1   ROW     1   COL     8   RATE     726.667    
 BOUNDARY      9   LAYER   1   ROW     1   COL     9   RATE     726.667    
 BOUNDARY     10   LAYER   1   ROW     1   COL    10   RATE     726.667    
 BOUNDARY     11   LAYER   1   ROW     1   COL    11   RATE     726.667    
 BOUNDARY     12   LAYER   1   ROW     1   COL    12   RATE     726.667    
 BOUNDARY     13   LAYER   1   ROW     1   COL    13   RATE     726.667    
 BOUNDARY     14   LAYER   1   ROW     1   COL    14   RATE     726.667    
 BOUNDARY     15   LAYER   1   ROW     1   COL    15   RATE     726.667    
 BOUNDARY     16   LAYER   1   ROW     2   COL     1   RATE     726.667    
 BOUNDARY     17   LAYER   1   ROW     2   COL     2   RATE     726.667    
 BOUNDARY     18   LAYER   1   ROW     2   COL     3   RATE     726.667    
 BOUNDARY     19   LAYER   1   ROW     2   COL     4   RATE     726.667    
 BOUNDARY     20   LAYER   1   ROW     2   COL     5   RATE     726.667    
 BOUNDARY     21   LAYER   1   ROW     2   COL     6   RATE     726.667    
 BOUNDARY     22   LAYER   1   ROW     2   COL     7   RATE     726.667    
 BOUNDARY     23   LAYER   1   ROW     2   COL     8   RATE     726.667    
 BOUNDARY     24   LAYER   1   ROW     2   COL     9   RATE     726.667    
 BOUNDARY     25   LAYER   1   ROW     2   COL    10   RATE     726.667    
 BOUNDARY     26   LAYER   1   ROW     2   COL    11   RATE     726.667    
 BOUNDARY     27   LAYER   1   ROW     2   COL    12   RATE     726.667    
 BOUNDARY     28   LAYER   1   ROW     2   COL    13   RATE     726.667    
 BOUNDARY     29   LAYER   1   ROW     2   COL    14   RATE     726.667    
 BOUNDARY     30   LAYER   1   ROW     2   COL    15   RATE     726.667    
 BOUNDARY     31   LAYER   1   ROW     3   COL     1   RATE     726.667    
 BOUNDARY     32   LAYER   1   ROW     3   COL     2   RATE     726.667    
 BOUNDARY     33   LAYER   1   ROW     3   COL     3   RATE     726.667    
 BOUNDARY     34   LAYER   1   ROW     3   COL     4   RATE     726.667    
 BOUNDARY     35   LAYER   1   ROW     3   COL     5   RATE     726.667    
 BOUNDARY     36   LAYER   1   ROW     3   COL     6   RATE     726.667    
 BOUNDARY     37   LAYER   1   ROW     3   COL     7   RATE     726.667    
 BOUNDARY     38   LAYER   1   ROW     3   COL     8   RATE     726.667    
 BOUNDARY     39   LAYER   1   ROW     3   COL     9   RATE     726.667    
 BOUNDARY     40   LAYER   1   ROW     3   COL    10   RATE     726.667    
 BOUNDARY     41   LAYER   1   ROW     3   COL    11   RATE     726.667    
 BOUNDARY     42   LAYER   1   ROW     3   COL    12   RATE     726.667    
 BOUNDARY     43   LAYER   1   ROW     3   COL    13   RATE     726.667    
 BOUNDARY     44   LAYER   1   ROW     3   COL    14   RATE     726.667    
 BOUNDARY     45   LAYER   1   ROW     3   COL    15   RATE     726.667    
 BOUNDARY     46   LAYER   1   ROW     4   COL     1   RATE     726.667    
 BOUNDARY     47   LAYER   1   ROW     4   COL     2   RATE     726.667    
 BOUNDARY     48   LAYER   1   ROW     4   COL     3   RATE     726.667    
 BOUNDARY     49   LAYER   1   ROW     4   COL     4   RATE     726.667    
 BOUNDARY     50   LAYER   1   ROW     4   COL     5   RATE     726.667    
 BOUNDARY     51   LAYER   1   ROW     4   COL     6   RATE     726.667    
 BOUNDARY     52   LAYER   1   ROW     4   COL     7   RATE     726.667    
 BOUNDARY     53   LAYER   1   ROW     4   COL     8   RATE     726.667    
 BOUNDARY     54   LAYER   1   ROW     4   COL     9   RATE     726.667    
 BOUNDARY     55   LAYER   1   ROW     4   COL    10   RATE     726.667    
 BOUNDARY     56   LAYER   1   ROW     4   COL    11   RATE     726.667    
 BOUNDARY     57   LAYER   1   ROW     4   COL    12   RATE     726.667    
 BOUNDARY     58   LAYER   1   ROW     4   COL    13   RATE     726.667    
 BOUNDARY     59   LAYER   1   ROW     4   COL    14   RATE     726.667    
 BOUNDARY     60   LAYER   1   ROW     4   COL    15   RATE     726.667    
 BOUNDARY     61   LAYER   1   ROW     5   COL     1   RATE     726.667    
 BOUNDARY     62   LAYER   1   ROW     5   COL     2   RATE     726.667    
 BOUNDARY     63   LAYER   1   ROW     5   COL     3   RATE     726.667    
 BOUNDARY     64   LAYER   1   ROW     5   COL     4   RATE     726.667    
 BOUNDARY     65   LAYER   1   ROW     5   COL     5   RATE     726.667    
 BOUNDARY     66   LAYER   1   ROW     5   COL     6   RATE     726.667    
 BOUNDARY     67   LAYER   1   ROW     5   COL     7   RATE     726.667    
 BOUNDARY     68   LAYER   1   ROW     5   COL     8   RATE     726.667    
 BOUNDARY     69   LAYER   1   ROW     5   COL     9   RATE     726.667    
 BOUNDARY     70   LAYER   1   ROW     5   COL    10   RATE     726.667    
 BOUNDARY     71   LAYER   1   ROW     5   COL    11   RATE     726.667    
 BOUNDARY     72   LAYER   1   ROW     5   COL    12   RATE     726.667    
 BOUNDARY     73   LAYER   1   ROW     5   COL    13   RATE     726.667    
 BOUNDARY     74   LAYER   1   ROW     5   COL    14   RATE     726.667    
 BOUNDARY     75   LAYER   1   ROW     5   COL    15   RATE     726.667    
 BOUNDARY     76   LAYER   1   ROW     6   COL     1   RATE     726.667    
 BOUNDARY     77   LAYER   1   ROW     6   COL     2   RATE     726.667    
 BOUNDARY     78   LAYER   1   ROW     6   COL     3   RATE     726.667    
 BOUNDARY     79   LAYER   1   ROW     6   COL     4   RATE     726.667    
 BOUNDARY     80   LAYER   1   ROW     6   COL     5   RATE     726.667    
 BOUNDARY     81   LAYER   1   ROW     6   COL     6   RATE     726.667    
 BOUNDARY     82   LAYER   1   ROW     6   COL     7   RATE     726.667    
 BOUNDARY     83   LAYER   1   ROW     6   COL     8   RATE     726.667    
 BOUNDARY     84   LAYER   1   ROW     6   COL     9   RATE     726.667    
 BOUNDARY     85   LAYER   1   ROW     6   COL    10   RATE     726.667    
 BOUNDARY     86   LAYER   1   ROW     6   COL    11   RATE     726.667    
 BOUNDARY     87   LAYER   1   ROW     6   COL    12   RATE     726.667    
 BOUNDARY     88   LAYER   1   ROW     6   COL    13   RATE     726.667    
 BOUNDARY     89   LAYER   1   ROW     6   COL    14   RATE     726.667    
 BOUNDARY     90   LAYER   1   ROW     6   COL    15   RATE     726.667    
 BOUNDARY     91   LAYER   1   ROW     7   COL     1   RATE     726.667    
 BOUNDARY     92   LAYER   1   ROW     7   COL     2   RATE     726.667    
 BOUNDARY     93   LAYER   1   ROW     7   COL     3   RATE     726.667    
 BOUNDARY     94   LAYER   1   ROW     7   COL     4   RATE     726.667    
 BOUNDARY     95   LAYER   1   ROW     7   COL     5   RATE     726.667    
 BOUNDARY     96   LAYER   1   ROW     7   COL     6   RATE     726.667    
 BOUNDARY     97   LAYER   1   ROW     7   COL     7   RATE     726.667    
 BOUNDARY     98   LAYER   1   ROW     7   COL     8   RATE     726.667    
 BOUNDARY     99   LAYER   1   ROW     7   COL     9   RATE     726.667    
 BOUNDARY    100   LAYER   1   ROW     7   COL    10   RATE     726.667    
 BOUNDARY    101   LAYER   1   ROW     7   COL    11   RATE     726.667    
 BOUNDARY    102   LAYER   1   ROW     7   COL    12   RATE     726.667    
 BOUNDARY    103   LAYER   1   ROW     7   COL    13   RATE     726.667    
 BOUNDARY    104   LAYER   1   ROW     7   COL    14   RATE     726.667    
 BOUNDARY    105   LAYER   1   ROW     7   COL    15   RATE     726.667    
 BOUNDARY    106   LAYER   1   ROW     8   COL     1   RATE     726.667    
 BOUNDARY    107   LAYER   1   ROW     8   COL     2   RATE     726.667    
 BOUNDARY    108   LAYER   1   ROW     8   COL     3   RATE     726.667    
 BOUNDARY    109   LAYER   1   ROW     8   COL     4   RATE     726.667    
 BOUNDARY    110   LAYER   1   ROW     8   COL     5   RATE     726.667    
 BOUNDARY    111   LAYER   1   ROW     8   COL     6   RATE     726.667    
 BOUNDARY    112   LAYER   1   ROW     8   COL     7   RATE     726.667    
 BOUNDARY    113   LAYER   1   ROW     8   COL     8   RATE     726.667    
 BOUNDARY    114   LAYER   1   ROW     8   COL     9   RATE     726.667    
 BOUNDARY    115   LAYER   1   ROW     8   COL    10   RATE     726.667    
 BOUNDARY    116   LAYER   1   ROW     8   COL    11   RATE     726.667    
 BOUNDARY    117   LAYER   1   ROW     8   COL    12   RATE     726.667    
 BOUNDARY    118   LAYER   1   ROW     8   COL    13   RATE     726.667    
 BOUNDARY    119   LAYER   1   ROW     8   COL    14   RATE     726.667    
 BOUNDARY    120   LAYER   1   ROW     8   COL    15   RATE     726.667    
 BOUNDARY    121   LAYER   1   ROW     9   COL     1   RATE     726.667    
 BOUNDARY    122   LAYER   1   ROW     9   COL     2   RATE     726.667    
 BOUNDARY    123   LAYER   1   ROW     9   COL     3   RATE     726.667    
 BOUNDARY    124   LAYER   1   ROW     9   COL     4   RATE     726.667    
 BOUNDARY    125   LAYER   1   ROW     9   COL     5   RATE     726.667    
 BOUNDARY    126   LAYER   1   ROW     9   COL     6   RATE     726.667    
 BOUNDARY    127   LAYER   1   ROW     9   COL     7   RATE     726.667    
 BOUNDARY    128   LAYER   1   ROW     9   COL     8   RATE     726.667    
 BOUNDARY    129   LAYER   1   ROW     9   COL     9   RATE     726.667    
 BOUNDARY    130   LAYER   1   ROW     9   COL    10   RATE     726.667    
 BOUNDARY    131   LAYER   1   ROW     9   COL    11   RATE     726.667    
 BOUNDARY    132   LAYER   1   ROW     9   COL    12   RATE     726.667    
 BOUNDARY    133   LAYER   1   ROW     9   COL    13   RATE     726.667    
 BOUNDARY    134   LAYER   1   ROW     9   COL    14   RATE     726.667    
 BOUNDARY    135   LAYER   1   ROW     9   COL    15   RATE     726.667    
 BOUNDARY    136   LAYER   1   ROW    10   COL     1   RATE     726.667    
 BOUNDARY    137   LAYER   1   ROW    10   COL     2   RATE     726.667    
 BOUNDARY    138   LAYER   1   ROW    10   COL     3   RATE     726.667    
 BOUNDARY    139   LAYER   1   ROW    10   COL     4   RATE     726.667    
 BOUNDARY    140   LAYER   1   ROW    10   COL     5   RATE     726.667    
 BOUNDARY    141   LAYER   1   ROW    10   COL     6   RATE     726.667    
 BOUNDARY    142   LAYER   1   ROW    10   COL     7   RATE     726.667    
 BOUNDARY    143   LAYER   1   ROW    10   COL     8   RATE     726.667    
 BOUNDARY    144   LAYER   1   ROW    10   COL     9   RATE     726.667    
 BOUNDARY    145   LAYER   1   ROW    10   COL    10   RATE     726.667    
 BOUNDARY    146   LAYER   1   ROW    10   COL    11   RATE     726.667    
 BOUNDARY    147   LAYER   1   ROW    10   COL    12   RATE     726.667    
 BOUNDARY    148   LAYER   1   ROW    10   COL    13   RATE     726.667    
 BOUNDARY    149   LAYER   1   ROW    10   COL    14   RATE     726.667    
 BOUNDARY    150   LAYER   1   ROW    10   COL    15   RATE     726.667    
 UBDSV4 SAVING ET SEGS          ON UNIT   1016 AT TIME STEP     31, STRESS PERIOD      4

 ET SEGS            PERIOD  4   STEP 31
 BOUNDARY      1   LAYER   1   ROW     1   COL     1   RATE    -2.76807    
 BOUNDARY      2   LAYER   1   ROW     1   COL     2   RATE    -9.62219    
 BOUNDARY      3   LAYER   1   ROW     1   COL     3   RATE    -59.7578    
 BOUNDARY      4   LAYER   1   ROW     1   COL     4   RATE   -100.0000    
 BOUNDARY      5   LAYER   1   ROW     1   COL     5   RATE   -100.0000    
 BOUNDARY      6   LAYER   1   ROW     1   COL     6   RATE   -100.0000    
 BOUNDARY      7   LAYER   1   ROW     1   COL     7   RATE   -100.0000    
 BOUNDARY      8   LAYER   1   ROW     1   COL     8   RATE   -100.0000    
 BOUNDARY      9   LAYER   1   ROW     1   COL     9   RATE   -100.0000    
 BOUNDARY     10   LAYER   1   ROW     1   COL    10   RATE   -100.0000    
 BOUNDARY     11   LAYER   1   ROW     1   COL    11   RATE   -100.0000    
 BOUNDARY     12   LAYER   1   ROW     1   COL    12   RATE    -18.9424    
 BOUNDARY     13   LAYER   1   ROW     1   COL    13   RATE     0.00000    
 BOUNDARY     14   LAYER   1   ROW     1   COL    14   RATE     0.00000    
 BOUNDARY     15   LAYER   1   ROW     1   COL    15   RATE     0.00000    
 BOUNDARY     16   LAYER   1   ROW     2   COL     1   RATE     0.00000    
 BOUNDARY     17   LAYER   1   ROW     2   COL     2   RATE    -5.09200    
 BOUNDARY     18   LAYER   1   ROW     2   COL     3   RATE    -31.5501    
 BOUNDARY     19   LAYER   1   ROW     2   COL     4   RATE   -100.0000    
 BOUNDARY     20   LAYER   1   ROW     2   COL     5   RATE   -100.0000    
 BOUNDARY     21   LAYER   1   ROW     2   COL     6   RATE   -100.0000    
 BOUNDARY     22   LAYER   1   ROW     2   COL     7   RATE   -100.0000    
 BOUNDARY     23   LAYER   1   ROW     2   COL     8   RATE   -100.0000    
 BOUNDARY     24   LAYER   1   ROW     2   COL     9   RATE   -100.0000    
 BOUNDARY     25   LAYER   1   ROW     2   COL    10   RATE   -100.0000    
 BOUNDARY     26   LAYER   1   ROW     2   COL    11   RATE   -100.0000    
 BOUNDARY     27   LAYER   1   ROW     2   COL    12   RATE    -20.6840    
 BOUNDARY     28   LAYER   1   ROW     2   COL    13   RATE   -0.757451    
 BOUNDARY     29   LAYER   1   ROW     2   COL    14   RATE     0.00000    
 BOUNDARY     30   LAYER   1   ROW     2   COL    15   RATE     0.00000    
 BOUNDARY     31   LAYER   1   ROW     3   COL     1   RATE     0.00000    
 BOUNDARY     32   LAYER   1   ROW     3   COL     2   RATE     0.00000    
 BOUNDARY     33   LAYER   1   ROW     3   COL     3   RATE    -24.3265    
 BOUNDARY     34   LAYER   1   ROW     3   COL     4   RATE   -100.0000    
 BOUNDARY     35   LAYER   1   ROW     3   COL     5   RATE   -100.0000    
 BOUNDARY     36   LAYER   1   ROW     3   COL     6   RATE   -100.0000    
 BOUNDARY     37   LAYER   1   ROW     3   COL     7   RATE   -100.0000    
 BOUNDARY     38   LAYER   1   ROW     3   COL     8   RATE   -100.0000    
 BOUNDARY     39   LAYER   1   ROW     3   COL     9   RATE   -100.0000    
 BOUNDARY     40   LAYER   1   ROW     3   COL    10   RATE   -100.0000    
 BOUNDARY     41   LAYER   1   ROW     3   COL    11   RATE   -100.0000    
 BOUNDARY     42   LAYER   1   ROW     3   COL    12   RATE    -23.6202    
 BOUNDARY     43   LAYER   1   ROW     3   COL    13   RATE    -2.55133    
 BOUNDARY     44   LAYER   1   ROW     3   COL    14   RATE     0.00000    
 BOUNDARY     45   LAYER   1   ROW     3   COL    15   RATE     0.00000    
 BOUNDARY     46   LAYER   1   ROW     4   COL     1   RATE     0.00000    
 BOUNDARY     47   LAYER   1   ROW     4   COL     2   RATE    -3.58560    
 BOUNDARY     48   LAYER   1   ROW     4   COL     3   RATE    -28.2255    
 BOUNDARY     49   LAYER   1   ROW     4   COL     4   RATE   -100.0000    
 BOUNDARY     50   LAYER   1   ROW     4   COL     5   RATE   -100.0000    
 BOUNDARY     51   LAYER   1   ROW     4   COL     6   RATE   -100.0000    
 BOUNDARY     52   LAYER   1   ROW     4   COL     7   RATE   -100.0000    
 BOUNDARY     53   LAYER   1   ROW     4   COL     8   RATE   -100.0000    
 BOUNDARY     54   LAYER   1   ROW     4   COL     9   RATE   -100.0000    
 BOUNDARY     55   LAYER   1   ROW     4   COL    10   RATE   -100.0000    
 BOUNDARY     56   LAYER   1   ROW     4   COL    11   RATE   -100.0000    
 BOUNDARY     57   LAYER   1   ROW     4   COL    12   RATE    -26.4077    
 BOUNDARY     58   LAYER   1   ROW     4   COL    13   RATE    -4.00295    
 BOUNDARY     59   LAYER   1   ROW     4   COL    14   RATE     0.00000    
 BOUNDARY     60   LAYER   1   ROW     4   COL    15   RATE     0.00000    
 BOUNDARY     61   LAYER   1   ROW     5   COL     1   RATE     0.00000    
 BOUNDARY     62   LAYER   1   ROW     5   COL     2   RATE    -6.56688    
 BOUNDARY     63   LAYER   1   ROW     5   COL     3   RATE    -41.5192    
 BOUNDARY     64   LAYER   1   ROW     5   COL     4   RATE   -100.0000    
 BOUNDARY     65   LAYER   1   ROW     5   COL     5   RATE   -100.0000    
 BOUNDARY     66   LAYER   1   ROW     5   COL     6   RATE   -100.0000    
 BOUNDARY     67   LAYER   1   ROW     5   COL     7   RATE   -100.0000    
 BOUNDARY     68   LAYER   1   ROW     5   COL     8   RATE   -100.0000    
 BOUNDARY     69   LAYER   1   ROW     5   COL     9   RATE   -100.0000    
 BOUNDARY     70   LAYER   1   ROW     5   COL    10   RATE   -100.0000    
 BOUNDARY     71   LAYER   1   ROW     5   COL    11   RATE   -100.0000    
 BOUNDARY     72   LAYER   1   ROW     5   COL    12   RATE    -28.3232    
 BOUNDARY     73   LAYER   1   ROW     5   COL    13   RATE    -4.88740    
 BOUNDARY     74   LAYER   1   ROW     5   COL    14   RATE     0.00000    
 BOUNDARY     75   LAYER   1   ROW     5   COL    15   RATE     0.00000    
 BOUNDARY     76   LAYER   1   ROW     6   COL     1   RATE     0.00000    
 BOUNDARY     77   LAYER   1   ROW     6   COL     2   RATE    -5.12369    
 BOUNDARY     78   LAYER   1   ROW     6   COL     3   RATE    -45.3060    
 BOUNDARY     79   LAYER   1   ROW     6   COL     4   RATE   -100.0000    
 BOUNDARY     80   LAYER   1   ROW     6   COL     5   RATE   -100.0000    
 BOUNDARY     81   LAYER   1   ROW     6   COL     6   RATE   -100.0000    
 BOUNDARY     82   LAYER   1   ROW     6   COL     7   RATE   -100.0000    
 BOUNDARY     83   LAYER   1   ROW     6   COL     8   RATE   -100.0000    
 BOUNDARY     84   LAYER   1   ROW     6   COL     9   RATE   -100.0000    
 BOUNDARY     85   LAYER   1   ROW     6   COL    10   RATE   -100.0000    
 BOUNDARY     86   LAYER   1   ROW     6   COL    11   RATE   -100.0000    
 BOUNDARY     87   LAYER   1   ROW     6   COL    12   RATE    -28.9663    
 BOUNDARY     88   LAYER   1   ROW     6   COL    13   RATE    -4.83888    
 BOUNDARY     89   LAYER   1   ROW     6   COL    14   RATE     0.00000    
 BOUNDARY     90   LAYER   1   ROW     6   COL    15   RATE     0.00000    
 BOUNDARY     91   LAYER   1   ROW     7   COL     1   RATE     0.00000    
 BOUNDARY     92   LAYER   1   ROW     7   COL     2   RATE    -1.58869    
 BOUNDARY     93   LAYER   1   ROW     7   COL     3   RATE    -52.1139    
 BOUNDARY     94   LAYER   1   ROW     7   COL     4   RATE   -100.0000    
 BOUNDARY     95   LAYER   1   ROW     7   COL     5   RATE   -100.0000    
 BOUNDARY     96   LAYER   1   ROW     7   COL     6   RATE   -100.0000    
 BOUNDARY     97   LAYER   1   ROW     7   COL     7   RATE   -100.0000    
 BOUNDARY     98   LAYER   1   ROW     7   COL     8   RATE   -100.0000    
 BOUNDARY     99   LAYER   1   ROW     7   COL     9   RATE   -100.0000    
 BOUNDARY    100   LAYER   1   ROW     7   COL    10   RATE   -100.0000    
 BOUNDARY    101   LAYER   1   ROW     7   COL    11   RATE   -100.0000    
 BOUNDARY    102   LAYER   1   ROW     7   COL    12   RATE    -28.8192    
 BOUNDARY    103   LAYER   1   ROW     7   COL    13   RATE    -4.12059    
 BOUNDARY    104   LAYER   1   ROW     7   COL    14   RATE     0.00000    
 BOUNDARY    105   LAYER   1   ROW     7   COL    15   RATE     0.00000    
 BOUNDARY    106   LAYER   1   ROW     8   COL     1   RATE     0.00000    
 BOUNDARY    107   LAYER   1   ROW     8   COL     2   RATE    -13.2922    
 BOUNDARY    108   LAYER   1   ROW     8   COL     3   RATE   -100.0000    
 BOUNDARY    109   LAYER   1   ROW     8   COL     4   RATE   -100.0000    
 BOUNDARY    110   LAYER   1   ROW     8   COL     5   RATE   -100.0000    
 BOUNDARY    111   LAYER   1   ROW     8   COL     6   RATE   -100.0000    
 BOUNDARY    112   LAYER   1   ROW     8   COL     7   RATE   -100.0000    
 BOUNDARY    113   LAYER   1   ROW     8   COL     8   RATE   -100.0000    
 BOUNDARY    114   LAYER   1   ROW     8   COL     9   RATE   -100.0000    
 BOUNDARY    115   LAYER   1   ROW     8   COL    10   RATE   -100.0000    
 BOUNDARY    116   LAYER   1   ROW     8   COL    11   RATE   -100.0000    
 BOUNDARY    117   LAYER   1   ROW     8   COL    12   RATE    -29.2341    
 BOUNDARY    118   LAYER   1   ROW     8   COL    13   RATE    -4.15034    
 BOUNDARY    119   LAYER   1   ROW     8   COL    14   RATE     0.00000    
 BOUNDARY    120   LAYER   1   ROW     8   COL    15   RATE     0.00000    
 BOUNDARY    121   LAYER   1   ROW     9   COL     1   RATE    -20.8905    
 BOUNDARY    122   LAYER   1   ROW     9   COL     2   RATE    -71.3270    
 BOUNDARY    123   LAYER   1   ROW     9   COL     3   RATE   -100.0000    
 BOUNDARY    124   LAYER   1   ROW     9   COL     4   RATE   -100.0000    
 BOUNDARY    125   LAYER   1   ROW     9   COL     5   RATE   -100.0000    
 BOUNDARY    126   LAYER   1   ROW     9   COL     6   RATE   -100.0000    
 BOUNDARY    127   LAYER   1   ROW     9   COL     7   RATE   -100.0000    
 BOUNDARY    128   LAYER   1   ROW     9   COL     8   RATE   -100.0000    
 BOUNDARY    129   LAYER   1   ROW     9   COL     9   RATE   -100.0000    
 BOUNDARY    130   LAYER   1   ROW     9   COL    10   RATE   -100.0000    
 BOUNDARY    131   LAYER   1   ROW     9   COL    11   RATE   -100.0000    
 BOUNDARY    132   LAYER   1   ROW     9   COL    12   RATE    -31.9137    
 BOUNDARY    133   LAYER   1   ROW     9   COL    13   RATE    -5.00730    
 BOUNDARY    134   LAYER   1   ROW     9   COL    14   RATE     0.00000    
 BOUNDARY    135   LAYER   1   ROW     9   COL    15   RATE     0.00000    
 BOUNDARY    136   LAYER   1   ROW    10   COL     1   RATE    -79.5173    
 BOUNDARY    137   LAYER   1   ROW    10   COL     2   RATE   -100.0000    
 BOUNDARY    138   LAYER   1   ROW    10   COL     3   RATE   -100.0000    
 BOUNDARY    139   LAYER   1   ROW    10   COL     4   RATE   -100.0000    
 BOUNDARY    140   LAYER   1   ROW    10   COL     5   RATE   -100.0000    
 BOUNDARY    141   LAYER   1   ROW    10   COL     6   RATE   -100.0000    
 BOUNDARY    142   LAYER   1   ROW    10   COL     7   RATE   -100.0000    
 BOUNDARY    143   LAYER   1   ROW    10   COL     8   RATE   -100.0000    
 BOUNDARY    144   LAYER   1   ROW    10   COL     9   RATE   -100.0000    
 BOUNDARY    145   LAYER   1   ROW    10   COL    10   RATE   -100.0000    
 BOUNDARY    146   LAYER   1   ROW    10   COL    11   RATE   -100.0000    
 BOUNDARY    147   LAYER   1   ROW    10   COL    12   RATE    -36.1420    
 BOUNDARY    148   LAYER   1   ROW    10   COL    13   RATE    -5.55329    
 BOUNDARY    149   LAYER   1   ROW    10   COL    14   RATE     0.00000    
 BOUNDARY    150   LAYER   1   ROW    10   COL    15   RATE     0.00000    

 HEAD WILL BE SAVED ON UNIT 1017 AT END OF TIME STEP   31, STRESS PERIOD    4
1
  VOLUME BUDGET FOR ENTIRE MODEL AT END OF TIME STEP   31, STRESS PERIOD   4
  ------------------------------------------------------------------------------

     CUMULATIVE VOLUME      L**3       RATES FOR THIS TIME STEP      L**3/T
     ------------------                 ------------------------

           IN:                                      IN:
           ---                                      ---
             STORAGE =       51546.2038               STORAGE =           0.0000
    WELLS NEAR RIVER =           0.0000      WELLS NEAR RIVER =           0.0000
               RIVER =           0.0000                 RIVER =           0.0000
           GHB LAKES =           0.0000             GHB LAKES =           0.0000
            RECHARGE =     8209000.0000              RECHARGE =      109000.0000
             ET SEGS =           0.0000               ET SEGS =           0.0000

            TOTAL IN =     8260546.2038              TOTAL IN =      109000.0000

          OUT:                                     OUT:
          ----                                     ----
             STORAGE =     1378789.7605               STORAGE =       31250.8943
    WELLS NEAR RIVER =        3570.0000      WELLS NEAR RIVER =           0.0000
               RIVER =     3351553.3968                 RIVER =       38522.3035
           GHB LAKES =     2696483.6384             GHB LAKES =       30015.7068
            RECHARGE =           0.0000              RECHARGE =           0.0000
             ET SEGS =      830149.4091               ET SEGS =        9211.0954

           TOTAL OUT =     8260546.2047             TOTAL OUT =      109000.0000

            IN - OUT =      -9.1868E-04              IN - OUT =      -3.3360E-06

 PERCENT DISCREPANCY =          -0.00     PERCENT DISCREPANCY =          -0.00






         TIME SUMMARY AT END OF TIME STEP   31 IN STRESS PERIOD    4
                    SECONDS     MINUTES      HOURS       DAYS        YEARS
                    -----------------------------------------------------------
   TIME STEP LENGTH  86400.      1440.0      24.000     1.00000     2.73785E-03
 STRESS PERIOD TIME 2.67840E+06  44640.      744.00      31.000     8.48734E-02
         TOTAL TIME 7.86240E+06 1.31040E+05  2184.0      91.000     0.24914    

 REUSING STORAGE VALUES FROM LAST STRESS PERIOD

 REUSING WELS FROM LAST STRESS PERIOD

 REUSING RIVS FROM LAST STRESS PERIOD

 REUSING GHBS FROM LAST STRESS PERIOD

 REUSING RCHS FROM LAST STRESS PERIOD

 REUSING ETSS FROM LAST STRESS PERIOD
WEL   no.    1 value from time series:   0.0000     for time:  91.00     to  92.00    
WEL   no.    2 value from time series:   0.0000     for time:  91.00     to  92.00    
RIV   no.    1 value from time series:   101.00     for time:  91.00     to  92.00    
RIV   no.    2 value from time series:   101.00     for time:  91.00     to  92.00    
RIV   no.    3 value from time series:   111.50     for time:  91.00     to  92.00    
RIV   no.    4 value from time series:   111.50     for time:  91.00     to  92.00    
RIV   no.    5 value from time series:   115.10     for time:  91.00     to  92.00    
RIV   no.    6 value from time series:   115.10     for time:  91.00     to  92.00    
RIV   no.    7 value from time series:   104.00     for time:  91.00     to  92.00    
RIV   no.    8 value from time series:   104.00     for time:  91.00     to  92.00    
RIV   no.    9 value from time series:   113.50     for time:  91.00     to  92.00    
RIV   no.   10 value from time series:   113.50     for time:  91.00     to  92.00    
WEL   no.    1 value from time series:   0.0000     for time:  91.00     to  92.00    
WEL   no.    2 value from time series:   0.0000     for time:  91.00     to  92.00    
RIV   no.    1 value from time series:   101.00     for time:  91.00     to  92.00    
RIV   no.    2 value from time series:   101.00     for time:  91.00     to  92.00    
RIV   no.    3 value from time series:   111.50     for time:  91.00     to  92.00    
RIV   no.    4 value from time series:   111.50     for time:  91.00     to  92.00    
RIV   no.    5 value from time series:   115.10     for time:  91.00     to  92.00    
RIV   no.    6 value from time series:   115.10     for time:  91.00     to  92.00    
RIV   no.    7 value from time series:   104.00     for time:  91.00     to  92.00    
RIV   no.    8 value from time series:   104.00     for time:  91.00     to  92.00    
RIV   no.    9 value from time series:   113.50     for time:  91.00     to  92.00    
RIV   no.   10 value from time series:   113.50     for time:  91.00     to  92.00    

 OUTPUT CONTROL FOR STRESS PERIOD    5   TIME STEP    1
    SAVE BUDGET
    SAVE HEAD
    SAVE HEAD FOR ALL LAYERS
 UBDSV1 SAVING          STORAGE ON UNIT   1016 AT TIME STEP      1, STRESS PERIOD      5
 UBDSV1 SAVING FLOW RIGHT FACE  ON UNIT   1016 AT TIME STEP      1, STRESS PERIOD      5
 UBDSV1 SAVING FLOW FRONT FACE  ON UNIT   1016 AT TIME STEP      1, STRESS PERIOD      5
 UBDSV1 SAVING FLOW LOWER FACE  ON UNIT   1016 AT TIME STEP      1, STRESS PERIOD      5
 UBDSV4 SAVING WELLS NEAR RIVER ON UNIT   1016 AT TIME STEP      1, STRESS PERIOD      5

 WELLS NEAR RIVER   PERIOD  5   STEP  1
 BOUNDARY      1   LAYER   2   ROW     8   COL     4   RATE     0.00000      WELL_2
 BOUNDARY      2   LAYER   2   ROW     3   COL     4   RATE     0.00000      WELL_1
 UBDSV4 SAVING RIVER            ON UNIT   1016 AT TIME STEP      1, STRESS PERIOD      5

 RIVER              PERIOD  5   STEP  1
 BOUNDARY      1   LAYER   1   ROW     1   COL    15   RATE    -4871.49    
 BOUNDARY      2   LAYER   1   ROW     2   COL    15   RATE    -5995.23      RIV2
 BOUNDARY      3   LAYER   1   ROW     3   COL    15   RATE    -2260.97      RIV3
 BOUNDARY      4   LAYER   1   ROW     4   COL    15   RATE    -3724.03    
 BOUNDARY      5   LAYER   1   ROW     5   COL    15   RATE    -2362.46    
 BOUNDARY      6   LAYER   1   ROW     6   COL    15   RATE    -1710.51    
 BOUNDARY      7   LAYER   1   ROW     7   COL    15   RATE    -6192.12      RIVX
 BOUNDARY      8   LAYER   1   ROW     8   COL    15   RATE    -6039.54      RIVX
 BOUNDARY      9   LAYER   1   ROW     9   COL    15   RATE    -2248.72      RIVX
 BOUNDARY     10   LAYER   1   ROW    10   COL    15   RATE    -3152.87    

 GHB LAKES          PERIOD  5   STEP  1
 BOUNDARY      1   LAYER   1   ROW     3   COL     1   RATE    -14702.9    
 BOUNDARY      2   LAYER   1   ROW     7   COL     1   RATE    -2025.12      GHB2_UPPER
 BOUNDARY      3   LAYER   1   ROW     7   COL     1   RATE    -13301.0      GHB2_LOWER
 UBDSV4 SAVING RECHARGE         ON UNIT   1016 AT TIME STEP      1, STRESS PERIOD      5

 RECHARGE           PERIOD  5   STEP  1
 BOUNDARY      1   LAYER   1   ROW     1   COL     1   RATE     730.000    
 BOUNDARY      2   LAYER   1   ROW     1   COL     2   RATE     730.000    
 BOUNDARY      3   LAYER   1   ROW     1   COL     3   RATE     730.000    
 BOUNDARY      4   LAYER   1   ROW     1   COL     4   RATE     730.000    
 BOUNDARY      5   LAYER   1   ROW     1   COL     5   RATE     730.000    
 BOUNDARY      6   LAYER   1   ROW     1   COL     6   RATE     730.000    
 BOUNDARY      7   LAYER   1   ROW     1   COL     7   RATE     730.000    
 BOUNDARY      8   LAYER   1   ROW     1   COL     8   RATE     730.000    
 BOUNDARY      9   LAYER   1   ROW     1   COL     9   RATE     730.000    
 BOUNDARY     10   LAYER   1   ROW     1   COL    10   RATE     730.000    
 BOUNDARY     11   LAYER   1   ROW     1   COL    11   RATE     730.000    
 BOUNDARY     12   LAYER   1   ROW     1   COL    12   RATE     730.000    
 BOUNDARY     13   LAYER   1   ROW     1   COL    13   RATE     730.000    
 BOUNDARY     14   LAYER   1   ROW     1   COL    14   RATE     730.000    
 BOUNDARY     15   LAYER   1   ROW     1   COL    15   RATE     730.000    
 BOUNDARY     16   LAYER   1   ROW     2   COL     1   RATE     730.000    
 BOUNDARY     17   LAYER   1   ROW     2   COL     2   RATE     730.000    
 BOUNDARY     18   LAYER   1   ROW     2   COL     3   RATE     730.000    
 BOUNDARY     19   LAYER   1   ROW     2   COL     4   RATE     730.000    
 BOUNDARY     20   LAYER   1   ROW     2   COL     5   RATE     730.000    
 BOUNDARY     21   LAYER   1   ROW     2   COL     6   RATE     730.000    
 BOUNDARY     22   LAYER   1   ROW     2   COL     7   RATE     730.000    
 BOUNDARY     23   LAYER   1   ROW     2   COL     8   RATE     730.000    
 BOUNDARY     24   LAYER   1   ROW     2   COL     9   RATE     730.000    
 BOUNDARY     25   LAYER   1   ROW     2   COL    10   RATE     730.000    
 BOUNDARY     26   LAYER   1   ROW     2   COL    11   RATE     730.000    
 BOUNDARY     27   LAYER   1   ROW     2   COL    12   RATE     730.000    
 BOUNDARY     28   LAYER   1   ROW     2   COL    13   RATE     730.000    
 BOUNDARY     29   LAYER   1   ROW     2   COL    14   RATE     730.000    
 BOUNDARY     30   LAYER   1   ROW     2   COL    15   RATE     730.000    
 BOUNDARY     31   LAYER   1   ROW     3   COL     1   RATE     730.000    
 BOUNDARY     32   LAYER   1   ROW     3   COL     2   RATE     730.000    
 BOUNDARY     33   LAYER   1   ROW     3   COL     3   RATE     730.000    
 BOUNDARY     34   LAYER   1   ROW     3   COL     4   RATE     730.000    
 BOUNDARY     35   LAYER   1   ROW     3   COL     5   RATE     730.000    
 BOUNDARY     36   LAYER   1   ROW     3   COL     6   RATE     730.000    
 BOUNDARY     37   LAYER   1   ROW     3   COL     7   RATE     730.000    
 BOUNDARY     38   LAYER   1   ROW     3   COL     8   RATE     730.000    
 BOUNDARY     39   LAYER   1   ROW     3   COL     9   RATE     730.000    
 BOUNDARY     40   LAYER   1   ROW     3   COL    10   RATE     730.000    
 BOUNDARY     41   LAYER   1   ROW     3   COL    11   RATE     730.000    
 BOUNDARY     42   LAYER   1   ROW     3   COL    12   RATE     730.000    
 BOUNDARY     43   LAYER   1   ROW     3   COL    13   RATE     730.000    
 BOUNDARY     44   LAYER   1   ROW     3   COL    14   RATE     730.000    
 BOUNDARY     45   LAYER   1   ROW     3   COL    15   RATE     730.000    
 BOUNDARY     46   LAYER   1   ROW     4   COL     1   RATE     730.000    
 BOUNDARY     47   LAYER   1   ROW     4   COL     2   RATE     730.000    
 BOUNDARY     48   LAYER   1   ROW     4   COL     3   RATE     730.000    
 BOUNDARY     49   LAYER   1   ROW     4   COL     4   RATE     730.000    
 BOUNDARY     50   LAYER   1   ROW     4   COL     5   RATE     730.000    
 BOUNDARY     51   LAYER   1   ROW     4   COL     6   RATE     730.000    
 BOUNDARY     52   LAYER   1   ROW     4   COL     7   RATE     730.000    
 BOUNDARY     53   LAYER   1   ROW     4   COL     8   RATE     730.000    
 BOUNDARY     54   LAYER   1   ROW     4   COL     9   RATE     730.000    
 BOUNDARY     55   LAYER   1   ROW     4   COL    10   RATE     730.000    
 BOUNDARY     56   LAYER   1   ROW     4   COL    11   RATE     730.000    
 BOUNDARY     57   LAYER   1   ROW     4   COL    12   RATE     730.000    
 BOUNDARY     58   LAYER   1   ROW     4   COL    13   RATE     730.000    
 BOUNDARY     59   LAYER   1   ROW     4   COL    14   RATE     730.000    
 BOUNDARY     60   LAYER   1   ROW     4   COL    15   RATE     730.000    
 BOUNDARY     61   LAYER   1   ROW     5   COL     1   RATE     730.000    
 BOUNDARY     62   LAYER   1   ROW     5   COL     2   RATE     730.000    
 BOUNDARY     63   LAYER   1   ROW     5   COL     3   RATE     730.000    
 BOUNDARY     64   LAYER   1   ROW     5   COL     4   RATE     730.000    
 BOUNDARY     65   LAYER   1   ROW     5   COL     5   RATE     730.000    
 BOUNDARY     66   LAYER   1   ROW     5   COL     6   RATE     730.000    
 BOUNDARY     67   LAYER   1   ROW     5   COL     7   RATE     730.000    
 BOUNDARY     68   LAYER   1   ROW     5   COL     8   RATE     730.000    
 BOUNDARY     69   LAYER   1   ROW     5   COL     9   RATE     730.000    
 BOUNDARY     70   LAYER   1   ROW     5   COL    10   RATE     730.000    
 BOUNDARY     71   LAYER   1   ROW     5   COL    11   RATE     730.000    
 BOUNDARY     72   LAYER   1   ROW     5   COL    12   RATE     730.000    
 BOUNDARY     73   LAYER   1   ROW     5   COL    13   RATE     730.000    
 BOUNDARY     74   LAYER   1   ROW     5   COL    14   RATE     730.000    
 BOUNDARY     75   LAYER   1   ROW     5   COL    15   RATE     730.000    
 BOUNDARY     76   LAYER   1   ROW     6   COL     1   RATE     730.000    
 BOUNDARY     77   LAYER   1   ROW     6   COL     2   RATE     730.000    
 BOUNDARY     78   LAYER   1   ROW     6   COL     3   RATE     730.000    
 BOUNDARY     79   LAYER   1   ROW     6   COL     4   RATE     730.000    
 BOUNDARY     80   LAYER   1   ROW     6   COL     5   RATE     730.000    
 BOUNDARY     81   LAYER   1   ROW     6   COL     6   RATE     730.000    
 BOUNDARY     82   LAYER   1   ROW     6   COL     7   RATE     730.000    
 BOUNDARY     83   LAYER   1   ROW     6   COL     8   RATE     730.000    
 BOUNDARY     84   LAYER   1   ROW     6   COL     9   RATE     730.000    
 BOUNDARY     85   LAYER   1   ROW     6   COL    10   RATE     730.000    
 BOUNDARY     86   LAYER   1   ROW     6   COL    11   RATE     730.000    
 BOUNDARY     87   LAYER   1   ROW     6   COL    12   RATE     730.000    
 BOUNDARY     88   LAYER   1   ROW     6   COL    13   RATE     730.000    
 BOUNDARY     89   LAYER   1   ROW     6   COL    14   RATE     730.000    
 BOUNDARY     90   LAYER   1   ROW     6   COL    15   RATE     730.000    
 BOUNDARY     91   LAYER   1   ROW     7   COL     1   RATE     730.000    
 BOUNDARY     92   LAYER   1   ROW     7   COL     2   RATE     730.000    
 BOUNDARY     93   LAYER   1   ROW     7   COL     3   RATE     730.000    
 BOUNDARY     94   LAYER   1   ROW     7   COL     4   RATE     730.000    
 BOUNDARY     95   LAYER   1   ROW     7   COL     5   RATE     730.000    
 BOUNDARY     96   LAYER   1   ROW     7   COL     6   RATE     730.000    
 BOUNDARY     97   LAYER   1   ROW     7   COL     7   RATE     730.000    
 BOUNDARY     98   LAYER   1   ROW     7   COL     8   RATE     730.000    
 BOUNDARY     99   LAYER   1   ROW     7   COL     9   RATE     730.000    
 BOUNDARY    100   LAYER   1   ROW     7   COL    10   RATE     730.000    
 BOUNDARY    101   LAYER   1   ROW     7   COL    11   RATE     730.000    
 BOUNDARY    102   LAYER   1   ROW     7   COL    12   RATE     730.000    
 BOUNDARY    103   LAYER   1   ROW     7   COL    13   RATE     730.000    
 BOUNDARY    104   LAYER   1   ROW     7   COL    14   RATE     730.000    
 BOUNDARY    105   LAYER   1   ROW     7   COL    15   RATE     730.000    
 BOUNDARY    106   LAYER   1   ROW     8   COL     1   RATE     730.000    
 BOUNDARY    107   LAYER   1   ROW     8   COL     2   RATE     730.000    
 BOUNDARY    108   LAYER   1   ROW     8   COL     3   RATE     730.000    
 BOUNDARY    109   LAYER   1   ROW     8   COL     4   RATE     730.000    
 BOUNDARY    110   LAYER   1   ROW     8   COL     5   RATE     730.000    
 BOUNDARY    111   LAYER   1   ROW     8   COL     6   RATE     730.000    
 BOUNDARY    112   LAYER   1   ROW     8   COL     7   RATE     730.000    
 BOUNDARY    113   LAYER   1   ROW     8   COL     8   RATE     730.000    
 BOUNDARY    114   LAYER   1   ROW     8   COL     9   RATE     730.000    
 BOUNDARY    115   LAYER   1   ROW     8   COL    10   RATE     730.000    
 BOUNDARY    116   LAYER   1   ROW     8   COL    11   RATE     730.000    
 BOUNDARY    117   LAYER   1   ROW     8   COL    12   RATE     730.000    
 BOUNDARY    118   LAYER   1   ROW     8   COL    13   RATE     730.000    
 BOUNDARY    119   LAYER   1   ROW     8   COL    14   RATE     730.000    
 BOUNDARY    120   LAYER   1   ROW     8   COL    15   RATE     730.000    
 BOUNDARY    121   LAYER   1   ROW     9   COL     1   RATE     730.000    
 BOUNDARY    122   LAYER   1   ROW     9   COL     2   RATE     730.000    
 BOUNDARY    123   LAYER   1   ROW     9   COL     3   RATE     730.000    
 BOUNDARY    124   LAYER   1   ROW     9   COL     4   RATE     730.000    
 BOUNDARY    125   LAYER   1   ROW     9   COL     5   RATE     730.000    
 BOUNDARY    126   LAYER   1   ROW     9   COL     6   RATE     730.000    
 BOUNDARY    127   LAYER   1   ROW     9   COL     7   RATE     730.000    
 BOUNDARY    128   LAYER   1   ROW     9   COL     8   RATE     730.000    
 BOUNDARY    129   LAYER   1   ROW     9   COL     9   RATE     730.000    
 BOUNDARY    130   LAYER   1   ROW     9   COL    10   RATE     730.000    
 BOUNDARY    131   LAYER   1   ROW     9   COL    11   RATE     730.000    
 BOUNDARY    132   LAYER   1   ROW     9   COL    12   RATE     730.000    
 BOUNDARY    133   LAYER   1   ROW     9   COL    13   RATE     730.000    
 BOUNDARY    134   LAYER   1   ROW     9   COL    14   RATE     730.000    
 BOUNDARY    135   LAYER   1   ROW     9   COL    15   RATE     730.000    
 BOUNDARY    136   LAYER   1   ROW    10   COL     1   RATE     730.000    
 BOUNDARY    137   LAYER   1   ROW    10   COL     2   RATE     730.000    
 BOUNDARY    138   LAYER   1   ROW    10   COL     3   RATE     730.000    
 BOUNDARY    139   LAYER   1   ROW    10   COL     4   RATE     730.000    
 BOUNDARY    140   LAYER   1   ROW    10   COL     5   RATE     730.000    
 BOUNDARY    141   LAYER   1   ROW    10   COL     6   RATE     730.000    
 BOUNDARY    142   LAYER   1   ROW    10   COL     7   RATE     730.000    
 BOUNDARY    143   LAYER   1   ROW    10   COL     8   RATE     730.000    
 BOUNDARY    144   LAYER   1   ROW    10   COL     9   RATE     730.000    
 BOUNDARY    145   LAYER   1   ROW    10   COL    10   RATE     730.000    
 BOUNDARY    146   LAYER   1   ROW    10   COL    11   RATE     730.000    
 BOUNDARY    147   LAYER   1   ROW    10   COL    12   RATE     730.000    
 BOUNDARY    148   LAYER   1   ROW    10   COL    13   RATE     730.000    
 BOUNDARY    149   LAYER   1   ROW    10   COL    14   RATE     730.000    
 BOUNDARY    150   LAYER   1   ROW    10   COL    15   RATE     730.000    
 UBDSV4 SAVING ET SEGS          ON UNIT   1016 AT TIME STEP      1, STRESS PERIOD      5

 ET SEGS            PERIOD  5   STEP  1
 BOUNDARY      1   LAYER   1   ROW     1   COL     1   RATE    -2.78543    
 BOUNDARY      2   LAYER   1   ROW     1   COL     2   RATE    -9.63977    
 BOUNDARY      3   LAYER   1   ROW     1   COL     3   RATE    -60.0651    
 BOUNDARY      4   LAYER   1   ROW     1   COL     4   RATE   -100.0000    
 BOUNDARY      5   LAYER   1   ROW     1   COL     5   RATE   -100.0000    
 BOUNDARY      6   LAYER   1   ROW     1   COL     6   RATE   -100.0000    
 BOUNDARY      7   LAYER   1   ROW     1   COL     7   RATE   -100.0000    
 BOUNDARY      8   LAYER   1   ROW     1   COL     8   RATE   -100.0000    
 BOUNDARY      9   LAYER   1   ROW     1   COL     9   RATE   -100.0000    
 BOUNDARY     10   LAYER   1   ROW     1   COL    10   RATE   -100.0000    
 BOUNDARY     11   LAYER   1   ROW     1   COL    11   RATE   -100.0000    
 BOUNDARY     12   LAYER   1   ROW     1   COL    12   RATE    -19.0025    
 BOUNDARY     13   LAYER   1   ROW     1   COL    13   RATE     0.00000    
 BOUNDARY     14   LAYER   1   ROW     1   COL    14   RATE     0.00000    
 BOUNDARY     15   LAYER   1   ROW     1   COL    15   RATE     0.00000    
 BOUNDARY     16   LAYER   1   ROW     2   COL     1   RATE     0.00000    
 BOUNDARY     17   LAYER   1   ROW     2   COL     2   RATE    -5.10936    
 BOUNDARY     18   LAYER   1   ROW     2   COL     3   RATE    -31.8663    
 BOUNDARY     19   LAYER   1   ROW     2   COL     4   RATE   -100.0000    
 BOUNDARY     20   LAYER   1   ROW     2   COL     5   RATE   -100.0000    
 BOUNDARY     21   LAYER   1   ROW     2   COL     6   RATE   -100.0000    
 BOUNDARY     22   LAYER   1   ROW     2   COL     7   RATE   -100.0000    
 BOUNDARY     23   LAYER   1   ROW     2   COL     8   RATE   -100.0000    
 BOUNDARY     24   LAYER   1   ROW     2   COL     9   RATE   -100.0000    
 BOUNDARY     25   LAYER   1   ROW     2   COL    10   RATE   -100.0000    
 BOUNDARY     26   LAYER   1   ROW     2   COL    11   RATE   -100.0000    
 BOUNDARY     27   LAYER   1   ROW     2   COL    12   RATE    -20.7442    
 BOUNDARY     28   LAYER   1   ROW     2   COL    13   RATE   -0.775043    
 BOUNDARY     29   LAYER   1   ROW     2   COL    14   RATE     0.00000    
 BOUNDARY     30   LAYER   1   ROW     2   COL    15   RATE     0.00000    
 BOUNDARY     31   LAYER   1   ROW     3   COL     1   RATE     0.00000    
 BOUNDARY     32   LAYER   1   ROW     3   COL     2   RATE     0.00000    
 BOUNDARY     33   LAYER   1   ROW     3   COL     3   RATE    -24.3853    
 BOUNDARY     34   LAYER   1   ROW     3   COL     4   RATE   -100.0000    
 BOUNDARY     35   LAYER   1   ROW     3   COL     5   RATE   -100.0000    
 BOUNDARY     36   LAYER   1   ROW     3   COL     6   RATE   -100.0000    
 BOUNDARY     37   LAYER   1   ROW     3   COL     7   RATE   -100.0000    
 BOUNDARY     38   LAYER   1   ROW     3   COL     8   RATE   -100.0000    
 BOUNDARY     39   LAYER   1   ROW     3   COL     9   RATE   -100.0000    
 BOUNDARY     40   LAYER   1   ROW     3   COL    10   RATE   -100.0000    
 BOUNDARY     41   LAYER   1   ROW     3   COL    11   RATE   -100.0000    
 BOUNDARY     42   LAYER   1   ROW     3   COL    12   RATE    -23.6803    
 BOUNDARY     43   LAYER   1   ROW     3   COL    13   RATE    -2.56899    
 BOUNDARY     44   LAYER   1   ROW     3   COL    14   RATE     0.00000    
 BOUNDARY     45   LAYER   1   ROW     3   COL    15   RATE     0.00000    
 BOUNDARY     46   LAYER   1   ROW     4   COL     1   RATE     0.00000    
 BOUNDARY     47   LAYER   1   ROW     4   COL     2   RATE    -3.60279    
 BOUNDARY     48   LAYER   1   ROW     4   COL     3   RATE    -28.2842    
 BOUNDARY     49   LAYER   1   ROW     4   COL     4   RATE   -100.0000    
 BOUNDARY     50   LAYER   1   ROW     4   COL     5   RATE   -100.0000    
 BOUNDARY     51   LAYER   1   ROW     4   COL     6   RATE   -100.0000    
 BOUNDARY     52   LAYER   1   ROW     4   COL     7   RATE   -100.0000    
 BOUNDARY     53   LAYER   1   ROW     4   COL     8   RATE   -100.0000    
 BOUNDARY     54   LAYER   1   ROW     4   COL     9   RATE   -100.0000    
 BOUNDARY     55   LAYER   1   ROW     4   COL    10   RATE   -100.0000    
 BOUNDARY     56   LAYER   1   ROW     4   COL    11   RATE   -100.0000    
 BOUNDARY     57   LAYER   1   ROW     4   COL    12   RATE    -26.4676    
 BOUNDARY     58   LAYER   1   ROW     4   COL    13   RATE    -4.02047    
 BOUNDARY     59   LAYER   1   ROW     4   COL    14   RATE     0.00000    
 BOUNDARY     60   LAYER   1   ROW     4   COL    15   RATE     0.00000    
 BOUNDARY     61   LAYER   1   ROW     5   COL     1   RATE     0.00000    
 BOUNDARY     62   LAYER   1   ROW     5   COL     2   RATE    -6.58430    
 BOUNDARY     63   LAYER   1   ROW     5   COL     3   RATE    -41.8235    
 BOUNDARY     64   LAYER   1   ROW     5   COL     4   RATE   -100.0000    
 BOUNDARY     65   LAYER   1   ROW     5   COL     5   RATE   -100.0000    
 BOUNDARY     66   LAYER   1   ROW     5   COL     6   RATE   -100.0000    
 BOUNDARY     67   LAYER   1   ROW     5   COL     7   RATE   -100.0000    
 BOUNDARY     68   LAYER   1   ROW     5   COL     8   RATE   -100.0000    
 BOUNDARY     69   LAYER   1   ROW     5   COL     9   RATE   -100.0000    
 BOUNDARY     70   LAYER   1   ROW     5   COL    10   RATE   -100.0000    
 BOUNDARY     71   LAYER   1   ROW     5   COL    11   RATE   -100.0000    
 BOUNDARY     72   LAYER   1   ROW     5   COL    12   RATE    -28.3828    
 BOUNDARY     73   LAYER   1   ROW     5   COL    13   RATE    -4.90466    
 BOUNDARY     74   LAYER   1   ROW     5   COL    14   RATE     0.00000    
 BOUNDARY     75   LAYER   1   ROW     5   COL    15   RATE     0.00000    
 BOUNDARY     76   LAYER   1   ROW     6   COL     1   RATE     0.00000    
 BOUNDARY     77   LAYER   1   ROW     6   COL     2   RATE    -5.14070    
 BOUNDARY     78   LAYER   1   ROW     6   COL     3   RATE    -45.6080    
 BOUNDARY     79   LAYER   1   ROW     6   COL     4   RATE   -100.0000    
 BOUNDARY     80   LAYER   1   ROW     6   COL     5   RATE   -100.0000    
 BOUNDARY     81   LAYER   1   ROW     6   COL     6   RATE   -100.0000    
 BOUNDARY     82   LAYER   1   ROW     6   COL     7   RATE   -100.0000    
 BOUNDARY     83   LAYER   1   ROW     6   COL     8   RATE   -100.0000    
 BOUNDARY     84   LAYER   1   ROW     6   COL     9   RATE   -100.0000    
 BOUNDARY     85   LAYER   1   ROW     6   COL    10   RATE   -100.0000    
 BOUNDARY     86   LAYER   1   ROW     6   COL    11   RATE   -100.0000    
 BOUNDARY     87   LAYER   1   ROW     6   COL    12   RATE    -29.0257    
 BOUNDARY     88   LAYER   1   ROW     6   COL    13   RATE    -4.85603    
 BOUNDARY     89   LAYER   1   ROW     6   COL    14   RATE     0.00000    
 BOUNDARY     90   LAYER   1   ROW     6   COL    15   RATE     0.00000    
 BOUNDARY     91   LAYER   1   ROW     7   COL     1   RATE     0.00000    
 BOUNDARY     92   LAYER   1   ROW     7   COL     2   RATE    -1.60463    
 BOUNDARY     93   LAYER   1   ROW     7   COL     3   RATE    -52.4140    
 BOUNDARY     94   LAYER   1   ROW     7   COL     4   RATE   -100.0000    
 BOUNDARY     95   LAYER   1   ROW     7   COL     5   RATE   -100.0000    
 BOUNDARY     96   LAYER   1   ROW     7   COL     6   RATE   -100.0000    
 BOUNDARY     97   LAYER   1   ROW     7   COL     7   RATE   -100.0000    
 BOUNDARY     98   LAYER   1   ROW     7   COL     8   RATE   -100.0000    
 BOUNDARY     99   LAYER   1   ROW     7   COL     9   RATE   -100.0000    
 BOUNDARY    100   LAYER   1   ROW     7   COL    10   RATE   -100.0000    
 BOUNDARY    101   LAYER   1   ROW     7   COL    11   RATE   -100.0000    
 BOUNDARY    102   LAYER   1   ROW     7   COL    12   RATE    -28.8789    
 BOUNDARY    103   LAYER   1   ROW     7   COL    13   RATE    -4.13794    
 BOUNDARY    104   LAYER   1   ROW     7   COL    14   RATE     0.00000    
 BOUNDARY    105   LAYER   1   ROW     7   COL    15   RATE     0.00000    
 BOUNDARY    106   LAYER   1   ROW     8   COL     1   RATE     0.00000    
 BOUNDARY    107   LAYER   1   ROW     8   COL     2   RATE    -13.3490    
 BOUNDARY    108   LAYER   1   ROW     8   COL     3   RATE   -100.0000    
 BOUNDARY    109   LAYER   1   ROW     8   COL     4   RATE   -100.0000    
 BOUNDARY    110   LAYER   1   ROW     8   COL     5   RATE   -100.0000    
 BOUNDARY    111   LAYER   1   ROW     8   COL     6   RATE   -100.0000    
 BOUNDARY    112   LAYER   1   ROW     8   COL     7   RATE   -100.0000    
 BOUNDARY    113   LAYER   1   ROW     8   COL     8   RATE   -100.0000    
 BOUNDARY    114   LAYER   1   ROW     8   COL     9   RATE   -100.0000    
 BOUNDARY    115   LAYER   1   ROW     8   COL    10   RATE   -100.0000    
 BOUNDARY    116   LAYER   1   ROW     8   COL    11   RATE   -100.0000    
 BOUNDARY    117   LAYER   1   ROW     8   COL    12   RATE    -29.2944    
 BOUNDARY    118   LAYER   1   ROW     8   COL    13   RATE    -4.16812    
 BOUNDARY    119   LAYER   1   ROW     8   COL    14   RATE     0.00000    
 BOUNDARY    120   LAYER   1   ROW     8   COL    15   RATE     0.00000    
 BOUNDARY    121   LAYER   1   ROW     9   COL     1   RATE    -20.9478    
 BOUNDARY    122   LAYER   1   ROW     9   COL     2   RATE    -71.6305    
 BOUNDARY    123   LAYER   1   ROW     9   COL     3   RATE   -100.0000    
 BOUNDARY    124   LAYER   1   ROW     9   COL     4   RATE   -100.0000    
 BOUNDARY    125   LAYER   1   ROW     9   COL     5   RATE   -100.0000    
 BOUNDARY    126   LAYER   1   ROW     9   COL     6   RATE   -100.0000    
 BOUNDARY    127   LAYER   1   ROW     9   COL     7   RATE   -100.0000    
 BOUNDARY    128   LAYER   1   ROW     9   COL     8   RATE   -100.0000    
 BOUNDARY    129   LAYER   1   ROW     9   COL     9   RATE   -100.0000    
 BOUNDARY    130   LAYER   1   ROW     9   COL    10   RATE   -100.0000    
 BOUNDARY    131   LAYER   1   ROW     9   COL    11   RATE   -100.0000    
 BOUNDARY    132   LAYER   1   ROW     9   COL    12   RATE    -32.2317    
 BOUNDARY    133   LAYER   1   ROW     9   COL    13   RATE    -5.02557    
 BOUNDARY    134   LAYER   1   ROW     9   COL    14   RATE     0.00000    
 BOUNDARY    135   LAYER   1   ROW     9   COL    15   RATE     0.00000    
 BOUNDARY    136   LAYER   1   ROW    10   COL     1   RATE    -79.8198    
 BOUNDARY    137   LAYER   1   ROW    10   COL     2   RATE   -100.0000    
 BOUNDARY    138   LAYER   1   ROW    10   COL     3   RATE   -100.0000    
 BOUNDARY    139   LAYER   1   ROW    10   COL     4   RATE   -100.0000    
 BOUNDARY    140   LAYER   1   ROW    10   COL     5   RATE   -100.0000    
 BOUNDARY    141   LAYER   1   ROW    10   COL     6   RATE   -100.0000    
 BOUNDARY    142   LAYER   1   ROW    10   COL     7   RATE   -100.0000    
 BOUNDARY    143   LAYER   1   ROW    10   COL     8   RATE   -100.0000    
 BOUNDARY    144   LAYER   1   ROW    10   COL     9   RATE   -100.0000    
 BOUNDARY    145   LAYER   1   ROW    10   COL    10   RATE   -100.0000    
 BOUNDARY    146   LAYER   1   ROW    10   COL    11   RATE   -100.0000    
 BOUNDARY    147   LAYER   1   ROW    10   COL    12   RATE    -36.4599    
 BOUNDARY    148   LAYER   1   ROW    10   COL    13   RATE    -5.57184    
 BOUNDARY    149   LAYER   1   ROW    10   COL    14   RATE     0.00000    
 BOUNDARY    150   LAYER   1   ROW    10   COL    15   RATE     0.00000    

 HEAD WILL BE SAVED ON UNIT 1017 AT END OF TIME STEP    1, STRESS PERIOD    5
WEL   no.    1 value from time series:   0.0000     for time:  92.00     to  93.00    
WEL   no.    2 value from time series:   0.0000     for time:  92.00     to  93.00    
RIV   no.    1 value from time series:   101.00     for time:  92.00     to  93.00    
RIV   no.    2 value from time series:   101.00     for time:  92.00     to  93.00    
RIV   no.    3 value from time series:   111.50     for time:  92.00     to  93.00    
RIV   no.    4 value from time series:   111.50     for time:  92.00     to  93.00    
RIV   no.    5 value from time series:   115.10     for time:  92.00     to  93.00    
RIV   no.    6 value from time series:   115.10     for time:  92.00     to  93.00    
RIV   no.    7 value from time series:   104.00     for time:  92.00     to  93.00    
RIV   no.    8 value from time series:   104.00     for time:  92.00     to  93.00    
RIV   no.    9 value from time series:   113.50     for time:  92.00     to  93.00    
RIV   no.   10 value from time series:   113.50     for time:  92.00     to  93.00    
WEL   no.    1 value from time series:   0.0000     for time:  92.00     to  93.00    
WEL   no.    2 value from time series:   0.0000     for time:  92.00     to  93.00    
RIV   no.    1 value from time series:   101.00     for time:  92.00     to  93.00    
RIV   no.    2 value from time series:   101.00     for time:  92.00     to  93.00    
RIV   no.    3 value from time series:   111.50     for time:  92.00     to  93.00    
RIV   no.    4 value from time series:   111.50     for time:  92.00     to  93.00    
RIV   no.    5 value from time series:   115.10     for time:  92.00     to  93.00    
RIV   no.    6 value from time series:   115.10     for time:  92.00     to  93.00    
RIV   no.    7 value from time series:   104.00     for time:  92.00     to  93.00    
RIV   no.    8 value from time series:   104.00     for time:  92.00     to  93.00    
RIV   no.    9 value from time series:   113.50     for time:  92.00     to  93.00    
RIV   no.   10 value from time series:   113.50     for time:  92.00     to  93.00    

 OUTPUT CONTROL FOR STRESS PERIOD    5   TIME STEP    2
    SAVE BUDGET
    SAVE HEAD
    SAVE HEAD FOR ALL LAYERS
 UBDSV1 SAVING          STORAGE ON UNIT   1016 AT TIME STEP      2, STRESS PERIOD      5
 UBDSV1 SAVING FLOW RIGHT FACE  ON UNIT   1016 AT TIME STEP      2, STRESS PERIOD      5
 UBDSV1 SAVING FLOW FRONT FACE  ON UNIT   1016 AT TIME STEP      2, STRESS PERIOD      5
 UBDSV1 SAVING FLOW LOWER FACE  ON UNIT   1016 AT TIME STEP      2, STRESS PERIOD      5
 UBDSV4 SAVING WELLS NEAR RIVER ON UNIT   1016 AT TIME STEP      2, STRESS PERIOD      5

 WELLS NEAR RIVER   PERIOD  5   STEP  2
 BOUNDARY      1   LAYER   2   ROW     8   COL     4   RATE     0.00000      WELL_2
 BOUNDARY      2   LAYER   2   ROW     3   COL     4   RATE     0.00000      WELL_1
 UBDSV4 SAVING RIVER            ON UNIT   1016 AT TIME STEP      2, STRESS PERIOD      5

 RIVER              PERIOD  5   STEP  2
 BOUNDARY      1   LAYER   1   ROW     1   COL    15   RATE    -4874.84    
 BOUNDARY      2   LAYER   1   ROW     2   COL    15   RATE    -5998.71      RIV2
 BOUNDARY      3   LAYER   1   ROW     3   COL    15   RATE    -2264.52      RIV3
 BOUNDARY      4   LAYER   1   ROW     4   COL    15   RATE    -3727.65    
 BOUNDARY      5   LAYER   1   ROW     5   COL    15   RATE    -2366.01    
 BOUNDARY      6   LAYER   1   ROW     6   COL    15   RATE    -1714.00    
 BOUNDARY      7   LAYER   1   ROW     7   COL    15   RATE    -6195.71      RIVX
 BOUNDARY      8   LAYER   1   ROW     8   COL    15   RATE    -6043.25      RIVX
 BOUNDARY      9   LAYER   1   ROW     9   COL    15   RATE    -2252.53      RIVX
 BOUNDARY     10   LAYER   1   ROW    10   COL    15   RATE    -3156.81    

 GHB LAKES          PERIOD  5   STEP  2
 BOUNDARY      1   LAYER   1   ROW     3   COL     1   RATE    -14709.4    
 BOUNDARY      2   LAYER   1   ROW     7   COL     1   RATE    -2030.32      GHB2_UPPER
 BOUNDARY      3   LAYER   1   ROW     7   COL     1   RATE    -13302.9      GHB2_LOWER
 UBDSV4 SAVING RECHARGE         ON UNIT   1016 AT TIME STEP      2, STRESS PERIOD      5

 RECHARGE           PERIOD  5   STEP  2
 BOUNDARY      1   LAYER   1   ROW     1   COL     1   RATE     733.333    
 BOUNDARY      2   LAYER   1   ROW     1   COL     2   RATE     733.333    
 BOUNDARY      3   LAYER   1   ROW     1   COL     3   RATE     733.333    
 BOUNDARY      4   LAYER   1   ROW     1   COL     4   RATE     733.333    
 BOUNDARY      5   LAYER   1   ROW     1   COL     5   RATE     733.333    
 BOUNDARY      6   LAYER   1   ROW     1   COL     6   RATE     733.333    
 BOUNDARY      7   LAYER   1   ROW     1   COL     7   RATE     733.333    
 BOUNDARY      8   LAYER   1   ROW     1   COL     8   RATE     733.333    
 BOUNDARY      9   LAYER   1   ROW     1   COL     9   RATE     733.333    
 BOUNDARY     10   LAYER   1   ROW     1   COL    10   RATE     733.333    
 BOUNDARY     11   LAYER   1   ROW     1   COL    11   RATE     733.333    
 BOUNDARY     12   LAYER   1   ROW     1   COL    12   RATE     733.333    
 BOUNDARY     13   LAYER   1   ROW     1   COL    13   RATE     733.333    
 BOUNDARY     14   LAYER   1   ROW     1   COL    14   RATE     733.333    
 BOUNDARY     15   LAYER   1   ROW     1   COL    15   RATE     733.333    
 BOUNDARY     16   LAYER   1   ROW     2   COL     1   RATE     733.333    
 BOUNDARY     17   LAYER   1   ROW     2   COL     2   RATE     733.333    
 BOUNDARY     18   LAYER   1   ROW     2   COL     3   RATE     733.333    
 BOUNDARY     19   LAYER   1   ROW     2   COL     4   RATE     733.333    
 BOUNDARY     20   LAYER   1   ROW     2   COL     5   RATE     733.333    
 BOUNDARY     21   LAYER   1   ROW     2   COL     6   RATE     733.333    
 BOUNDARY     22   LAYER   1   ROW     2   COL     7   RATE     733.333    
 BOUNDARY     23   LAYER   1   ROW     2   COL     8   RATE     733.333    
 BOUNDARY     24   LAYER   1   ROW     2   COL     9   RATE     733.333    
 BOUNDARY     25   LAYER   1   ROW     2   COL    10   RATE     733.333    
 BOUNDARY     26   LAYER   1   ROW     2   COL    11   RATE     733.333    
 BOUNDARY     27   LAYER   1   ROW     2   COL    12   RATE     733.333    
 BOUNDARY     28   LAYER   1   ROW     2   COL    13   RATE     733.333    
 BOUNDARY     29   LAYER   1   ROW     2   COL    14   RATE     733.333    
 BOUNDARY     30   LAYER   1   ROW     2   COL    15   RATE     733.333    
 BOUNDARY     31   LAYER   1   ROW     3   COL     1   RATE     733.333    
 BOUNDARY     32   LAYER   1   ROW     3   COL     2   RATE     733.333    
 BOUNDARY     33   LAYER   1   ROW     3   COL     3   RATE     733.333    
 BOUNDARY     34   LAYER   1   ROW     3   COL     4   RATE     733.333    
 BOUNDARY     35   LAYER   1   ROW     3   COL     5   RATE     733.333    
 BOUNDARY     36   LAYER   1   ROW     3   COL     6   RATE     733.333    
 BOUNDARY     37   LAYER   1   ROW     3   COL     7   RATE     733.333    
 BOUNDARY     38   LAYER   1   ROW     3   COL     8   RATE     733.333    
 BOUNDARY     39   LAYER   1   ROW     3   COL     9   RATE     733.333    
 BOUNDARY     40   LAYER   1   ROW     3   COL    10   RATE     733.333    
 BOUNDARY     41   LAYER   1   ROW     3   COL    11   RATE     733.333    
 BOUNDARY     42   LAYER   1   ROW     3   COL    12   RATE     733.333    
 BOUNDARY     43   LAYER   1   ROW     3   COL    13   RATE     733.333    
 BOUNDARY     44   LAYER   1   ROW     3   COL    14   RATE     733.333    
 BOUNDARY     45   LAYER   1   ROW     3   COL    15   RATE     733.333    
 BOUNDARY     46   LAYER   1   ROW     4   COL     1   RATE     733.333    
 BOUNDARY     47   LAYER   1   ROW     4   COL     2   RATE     733.333    
 BOUNDARY     48   LAYER   1   ROW     4   COL     3   RATE     733.333    
 BOUNDARY     49   LAYER   1   ROW     4   COL     4   RATE     733.333    
 BOUNDARY     50   LAYER   1   ROW     4   COL     5   RATE     733.333    
 BOUNDARY     51   LAYER   1   ROW     4   COL     6   RATE     733.333    
 BOUNDARY     52   LAYER   1   ROW     4   COL     7   RATE     733.333    
 BOUNDARY     53   LAYER   1   ROW     4   COL     8   RATE     733.333    
 BOUNDARY     54   LAYER   1   ROW     4   COL     9   RATE     733.333    
 BOUNDARY     55   LAYER   1   ROW     4   COL    10   RATE     733.333    
 BOUNDARY     56   LAYER   1   ROW     4   COL    11   RATE     733.333    
 BOUNDARY     57   LAYER   1   ROW     4   COL    12   RATE     733.333    
 BOUNDARY     58   LAYER   1   ROW     4   COL    13   RATE     733.333    
 BOUNDARY     59   LAYER   1   ROW     4   COL    14   RATE     733.333    
 BOUNDARY     60   LAYER   1   ROW     4   COL    15   RATE     733.333    
 BOUNDARY     61   LAYER   1   ROW     5   COL     1   RATE     733.333    
 BOUNDARY     62   LAYER   1   ROW     5   COL     2   RATE     733.333    
 BOUNDARY     63   LAYER   1   ROW     5   COL     3   RATE     733.333    
 BOUNDARY     64   LAYER   1   ROW     5   COL     4   RATE     733.333    
 BOUNDARY     65   LAYER   1   ROW     5   COL     5   RATE     733.333    
 BOUNDARY     66   LAYER   1   ROW     5   COL     6   RATE     733.333    
 BOUNDARY     67   LAYER   1   ROW     5   COL     7   RATE     733.333    
 BOUNDARY     68   LAYER   1   ROW     5   COL     8   RATE     733.333    
 BOUNDARY     69   LAYER   1   ROW     5   COL     9   RATE     733.333    
 BOUNDARY     70   LAYER   1   ROW     5   COL    10   RATE     733.333    
 BOUNDARY     71   LAYER   1   ROW     5   COL    11   RATE     733.333    
 BOUNDARY     72   LAYER   1   ROW     5   COL    12   RATE     733.333    
 BOUNDARY     73   LAYER   1   ROW     5   COL    13   RATE     733.333    
 BOUNDARY     74   LAYER   1   ROW     5   COL    14   RATE     733.333    
 BOUNDARY     75   LAYER   1   ROW     5   COL    15   RATE     733.333    
 BOUNDARY     76   LAYER   1   ROW     6   COL     1   RATE     733.333    
 BOUNDARY     77   LAYER   1   ROW     6   COL     2   RATE     733.333    
 BOUNDARY     78   LAYER   1   ROW     6   COL     3   RATE     733.333    
 BOUNDARY     79   LAYER   1   ROW     6   COL     4   RATE     733.333    
 BOUNDARY     80   LAYER   1   ROW     6   COL     5   RATE     733.333    
 BOUNDARY     81   LAYER   1   ROW     6   COL     6   RATE     733.333    
 BOUNDARY     82   LAYER   1   ROW     6   COL     7   RATE     733.333    
 BOUNDARY     83   LAYER   1   ROW     6   COL     8   RATE     733.333    
 BOUNDARY     84   LAYER   1   ROW     6   COL     9   RATE     733.333    
 BOUNDARY     85   LAYER   1   ROW     6   COL    10   RATE     733.333    
 BOUNDARY     86   LAYER   1   ROW     6   COL    11   RATE     733.333    
 BOUNDARY     87   LAYER   1   ROW     6   COL    12   RATE     733.333    
 BOUNDARY     88   LAYER   1   ROW     6   COL    13   RATE     733.333    
 BOUNDARY     89   LAYER   1   ROW     6   COL    14   RATE     733.333    
 BOUNDARY     90   LAYER   1   ROW     6   COL    15   RATE     733.333    
 BOUNDARY     91   LAYER   1   ROW     7   COL     1   RATE     733.333    
 BOUNDARY     92   LAYER   1   ROW     7   COL     2   RATE     733.333    
 BOUNDARY     93   LAYER   1   ROW     7   COL     3   RATE     733.333    
 BOUNDARY     94   LAYER   1   ROW     7   COL     4   RATE     733.333    
 BOUNDARY     95   LAYER   1   ROW     7   COL     5   RATE     733.333    
 BOUNDARY     96   LAYER   1   ROW     7   COL     6   RATE     733.333    
 BOUNDARY     97   LAYER   1   ROW     7   COL     7   RATE     733.333    
 BOUNDARY     98   LAYER   1   ROW     7   COL     8   RATE     733.333    
 BOUNDARY     99   LAYER   1   ROW     7   COL     9   RATE     733.333    
 BOUNDARY    100   LAYER   1   ROW     7   COL    10   RATE     733.333    
 BOUNDARY    101   LAYER   1   ROW     7   COL    11   RATE     733.333    
 BOUNDARY    102   LAYER   1   ROW     7   COL    12   RATE     733.333    
 BOUNDARY    103   LAYER   1   ROW     7   COL    13   RATE     733.333    
 BOUNDARY    104   LAYER   1   ROW     7   COL    14   RATE     733.333    
 BOUNDARY    105   LAYER   1   ROW     7   COL    15   RATE     733.333    
 BOUNDARY    106   LAYER   1   ROW     8   COL     1   RATE     733.333    
 BOUNDARY    107   LAYER   1   ROW     8   COL     2   RATE     733.333    
 BOUNDARY    108   LAYER   1   ROW     8   COL     3   RATE     733.333    
 BOUNDARY    109   LAYER   1   ROW     8   COL     4   RATE     733.333    
 BOUNDARY    110   LAYER   1   ROW     8   COL     5   RATE     733.333    
 BOUNDARY    111   LAYER   1   ROW     8   COL     6   RATE     733.333    
 BOUNDARY    112   LAYER   1   ROW     8   COL     7   RATE     733.333    
 BOUNDARY    113   LAYER   1   ROW     8   COL     8   RATE     733.333    
 BOUNDARY    114   LAYER   1   ROW     8   COL     9   RATE     733.333    
 BOUNDARY    115   LAYER   1   ROW     8   COL    10   RATE     733.333    
 BOUNDARY    116   LAYER   1   ROW     8   COL    11   RATE     733.333    
 BOUNDARY    117   LAYER   1   ROW     8   COL    12   RATE     733.333    
 BOUNDARY    118   LAYER   1   ROW     8   COL    13   RATE     733.333    
 BOUNDARY    119   LAYER   1   ROW     8   COL    14   RATE     733.333    
 BOUNDARY    120   LAYER   1   ROW     8   COL    15   RATE     733.333    
 BOUNDARY    121   LAYER   1   ROW     9   COL     1   RATE     733.333    
 BOUNDARY    122   LAYER   1   ROW     9   COL     2   RATE     733.333    
 BOUNDARY    123   LAYER   1   ROW     9   COL     3   RATE     733.333    
 BOUNDARY    124   LAYER   1   ROW     9   COL     4   RATE     733.333    
 BOUNDARY    125   LAYER   1   ROW     9   COL     5   RATE     733.333    
 BOUNDARY    126   LAYER   1   ROW     9   COL     6   RATE     733.333    
 BOUNDARY    127   LAYER   1   ROW     9   COL     7   RATE     733.333    
 BOUNDARY    128   LAYER   1   ROW     9   COL     8   RATE     733.333    
 BOUNDARY    129   LAYER   1   ROW     9   COL     9   RATE     733.333    
 BOUNDARY    130   LAYER   1   ROW     9   COL    10   RATE     733.333    
 BOUNDARY    131   LAYER   1   ROW     9   COL    11   RATE     733.333    
 BOUNDARY    132   LAYER   1   ROW     9   COL    12   RATE     733.333    
 BOUNDARY    133   LAYER   1   ROW     9   COL    13   RATE     733.333    
 BOUNDARY    134   LAYER   1   ROW     9   COL    14   RATE     733.333    
 BOUNDARY    135   LAYER   1   ROW     9   COL    15   RATE     733.333    
 BOUNDARY    136   LAYER   1   ROW    10   COL     1   RATE     733.333    
 BOUNDARY    137   LAYER   1   ROW    10   COL     2   RATE     733.333    
 BOUNDARY    138   LAYER   1   ROW    10   COL     3   RATE     733.333    
 BOUNDARY    139   LAYER   1   ROW    10   COL     4   RATE     733.333    
 BOUNDARY    140   LAYER   1   ROW    10   COL     5   RATE     733.333    
 BOUNDARY    141   LAYER   1   ROW    10   COL     6   RATE     733.333    
 BOUNDARY    142   LAYER   1   ROW    10   COL     7   RATE     733.333    
 BOUNDARY    143   LAYER   1   ROW    10   COL     8   RATE     733.333    
 BOUNDARY    144   LAYER   1   ROW    10   COL     9   RATE     733.333    
 BOUNDARY    145   LAYER   1   ROW    10   COL    10   RATE     733.333    
 BOUNDARY    146   LAYER   1   ROW    10   COL    11   RATE     733.333    
 BOUNDARY    147   LAYER   1   ROW    10   COL    12   RATE     733.333    
 BOUNDARY    148   LAYER   1   ROW    10   COL    13   RATE     733.333    
 BOUNDARY    149   LAYER   1   ROW    10   COL    14   RATE     733.333    
 BOUNDARY    150   LAYER   1   ROW    10   COL    15   RATE     733.333    
 UBDSV4 SAVING ET SEGS          ON UNIT   1016 AT TIME STEP      2, STRESS PERIOD      5

 ET SEGS            PERIOD  5   STEP  2
 BOUNDARY      1   LAYER   1   ROW     1   COL     1   RATE    -2.80305    
 BOUNDARY      2   LAYER   1   ROW     1   COL     2   RATE    -9.65759    
 BOUNDARY      3   LAYER   1   ROW     1   COL     3   RATE    -60.3768    
 BOUNDARY      4   LAYER   1   ROW     1   COL     4   RATE   -100.0000    
 BOUNDARY      5   LAYER   1   ROW     1   COL     5   RATE   -100.0000    
 BOUNDARY      6   LAYER   1   ROW     1   COL     6   RATE   -100.0000    
 BOUNDARY      7   LAYER   1   ROW     1   COL     7   RATE   -100.0000    
 BOUNDARY      8   LAYER   1   ROW     1   COL     8   RATE   -100.0000    
 BOUNDARY      9   LAYER   1   ROW     1   COL     9   RATE   -100.0000    
 BOUNDARY     10   LAYER   1   ROW     1   COL    10   RATE   -100.0000    
 BOUNDARY     11   LAYER   1   ROW     1   COL    11   RATE   -100.0000    
 BOUNDARY     12   LAYER   1   ROW     1   COL    12   RATE    -19.0634    
 BOUNDARY     13   LAYER   1   ROW     1   COL    13   RATE     0.00000    
 BOUNDARY     14   LAYER   1   ROW     1   COL    14   RATE     0.00000    
 BOUNDARY     15   LAYER   1   ROW     1   COL    15   RATE     0.00000    
 BOUNDARY     16   LAYER   1   ROW     2   COL     1   RATE     0.00000    
 BOUNDARY     17   LAYER   1   ROW     2   COL     2   RATE    -5.12696    
 BOUNDARY     18   LAYER   1   ROW     2   COL     3   RATE    -32.1862    
 BOUNDARY     19   LAYER   1   ROW     2   COL     4   RATE   -100.0000    
 BOUNDARY     20   LAYER   1   ROW     2   COL     5   RATE   -100.0000    
 BOUNDARY     21   LAYER   1   ROW     2   COL     6   RATE   -100.0000    
 BOUNDARY     22   LAYER   1   ROW     2   COL     7   RATE   -100.0000    
 BOUNDARY     23   LAYER   1   ROW     2   COL     8   RATE   -100.0000    
 BOUNDARY     24   LAYER   1   ROW     2   COL     9   RATE   -100.0000    
 BOUNDARY     25   LAYER   1   ROW     2   COL    10   RATE   -100.0000    
 BOUNDARY     26   LAYER   1   ROW     2   COL    11   RATE   -100.0000    
 BOUNDARY     27   LAYER   1   ROW     2   COL    12   RATE    -20.8051    
 BOUNDARY     28   LAYER   1   ROW     2   COL    13   RATE   -0.792870    
 BOUNDARY     29   LAYER   1   ROW     2   COL    14   RATE     0.00000    
 BOUNDARY     30   LAYER   1   ROW     2   COL    15   RATE     0.00000    
 BOUNDARY     31   LAYER   1   ROW     3   COL     1   RATE     0.00000    
 BOUNDARY     32   LAYER   1   ROW     3   COL     2   RATE     0.00000    
 BOUNDARY     33   LAYER   1   ROW     3   COL     3   RATE    -24.4449    
 BOUNDARY     34   LAYER   1   ROW     3   COL     4   RATE   -100.0000    
 BOUNDARY     35   LAYER   1   ROW     3   COL     5   RATE   -100.0000    
 BOUNDARY     36   LAYER   1   ROW     3   COL     6   RATE   -100.0000    
 BOUNDARY     37   LAYER   1   ROW     3   COL     7   RATE   -100.0000    
 BOUNDARY     38   LAYER   1   ROW     3   COL     8   RATE   -100.0000    
 BOUNDARY     39   LAYER   1   ROW     3   COL     9   RATE   -100.0000    
 BOUNDARY     40   LAYER   1   ROW     3   COL    10   RATE   -100.0000    
 BOUNDARY     41   LAYER   1   ROW     3   COL    11   RATE   -100.0000    
 BOUNDARY     42   LAYER   1   ROW     3   COL    12   RATE    -23.7413    
 BOUNDARY     43   LAYER   1   ROW     3   COL    13   RATE    -2.58688    
 BOUNDARY     44   LAYER   1   ROW     3   COL    14   RATE     0.00000    
 BOUNDARY     45   LAYER   1   ROW     3   COL    15   RATE     0.00000    
 BOUNDARY     46   LAYER   1   ROW     4   COL     1   RATE     0.00000    
 BOUNDARY     47   LAYER   1   ROW     4   COL     2   RATE    -3.62022    
 BOUNDARY     48   LAYER   1   ROW     4   COL     3   RATE    -28.3438    
 BOUNDARY     49   LAYER   1   ROW     4   COL     4   RATE   -100.0000    
 BOUNDARY     50   LAYER   1   ROW     4   COL     5   RATE   -100.0000    
 BOUNDARY     51   LAYER   1   ROW     4   COL     6   RATE   -100.0000    
 BOUNDARY     52   LAYER   1   ROW     4   COL     7   RATE   -100.0000    
 BOUNDARY     53   LAYER   1   ROW     4   COL     8   RATE   -100.0000    
 BOUNDARY     54   LAYER   1   ROW     4   COL     9   RATE   -100.0000    
 BOUNDARY     55   LAYER   1   ROW     4   COL    10   RATE   -100.0000    
 BOUNDARY     56   LAYER   1   ROW     4   COL    11   RATE   -100.0000    
 BOUNDARY     57   LAYER   1   ROW     4   COL    12   RATE    -26.5284    
 BOUNDARY     58   LAYER   1   ROW     4   COL    13   RATE    -4.03823    
 BOUNDARY     59   LAYER   1   ROW     4   COL    14   RATE     0.00000    
 BOUNDARY     60   LAYER   1   ROW     4   COL    15   RATE     0.00000    
 BOUNDARY     61   LAYER   1   ROW     5   COL     1   RATE     0.00000    
 BOUNDARY     62   LAYER   1   ROW     5   COL     2   RATE    -6.60196    
 BOUNDARY     63   LAYER   1   ROW     5   COL     3   RATE    -42.1320    
 BOUNDARY     64   LAYER   1   ROW     5   COL     4   RATE   -100.0000    
 BOUNDARY     65   LAYER   1   ROW     5   COL     5   RATE   -100.0000    
 BOUNDARY     66   LAYER   1   ROW     5   COL     6   RATE   -100.0000    
 BOUNDARY     67   LAYER   1   ROW     5   COL     7   RATE   -100.0000    
 BOUNDARY     68   LAYER   1   ROW     5   COL     8   RATE   -100.0000    
 BOUNDARY     69   LAYER   1   ROW     5   COL     9   RATE   -100.0000    
 BOUNDARY     70   LAYER   1   ROW     5   COL    10   RATE   -100.0000    
 BOUNDARY     71   LAYER   1   ROW     5   COL    11   RATE   -100.0000    
 BOUNDARY     72   LAYER   1   ROW     5   COL    12   RATE    -28.4432    
 BOUNDARY     73   LAYER   1   ROW     5   COL    13   RATE    -4.92216    
 BOUNDARY     74   LAYER   1   ROW     5   COL    14   RATE     0.00000    
 BOUNDARY     75   LAYER   1   ROW     5   COL    15   RATE     0.00000    
 BOUNDARY     76   LAYER   1   ROW     6   COL     1   RATE     0.00000    
 BOUNDARY     77   LAYER   1   ROW     6   COL     2   RATE    -5.15794    
 BOUNDARY     78   LAYER   1   ROW     6   COL     3   RATE    -45.9142    
 BOUNDARY     79   LAYER   1   ROW     6   COL     4   RATE   -100.0000    
 BOUNDARY     80   LAYER   1   ROW     6   COL     5   RATE   -100.0000    
 BOUNDARY     81   LAYER   1   ROW     6   COL     6   RATE   -100.0000    
 BOUNDARY     82   LAYER   1   ROW     6   COL     7   RATE   -100.0000    
 BOUNDARY     83   LAYER   1   ROW     6   COL     8   RATE   -100.0000    
 BOUNDARY     84   LAYER   1   ROW     6   COL     9   RATE   -100.0000    
 BOUNDARY     85   LAYER   1   ROW     6   COL    10   RATE   -100.0000    
 BOUNDARY     86   LAYER   1   ROW     6   COL    11   RATE   -100.0000    
 BOUNDARY     87   LAYER   1   ROW     6   COL    12   RATE    -29.0860    
 BOUNDARY     88   LAYER   1   ROW     6   COL    13   RATE    -4.87343    
 BOUNDARY     89   LAYER   1   ROW     6   COL    14   RATE     0.00000    
 BOUNDARY     90   LAYER   1   ROW     6   COL    15   RATE     0.00000    
 BOUNDARY     91   LAYER   1   ROW     7   COL     1   RATE     0.00000    
 BOUNDARY     92   LAYER   1   ROW     7   COL     2   RATE    -1.62079    
 BOUNDARY     93   LAYER   1   ROW     7   COL     3   RATE    -52.7182    
 BOUNDARY     94   LAYER   1   ROW     7   COL     4   RATE   -100.0000    
 BOUNDARY     95   LAYER   1   ROW     7   COL     5   RATE   -100.0000    
 BOUNDARY     96   LAYER   1   ROW     7   COL     6   RATE   -100.0000    
 BOUNDARY     97   LAYER   1   ROW     7   COL     7   RATE   -100.0000    
 BOUNDARY     98   LAYER   1   ROW     7   COL     8   RATE   -100.0000    
 BOUNDARY     99   LAYER   1   ROW     7   COL     9   RATE   -100.0000    
 BOUNDARY    100   LAYER   1   ROW     7   COL    10   RATE   -100.0000    
 BOUNDARY    101   LAYER   1   ROW     7   COL    11   RATE   -100.0000    
 BOUNDARY    102   LAYER   1   ROW     7   COL    12   RATE    -28.9394    
 BOUNDARY    103   LAYER   1   ROW     7   COL    13   RATE    -4.15552    
 BOUNDARY    104   LAYER   1   ROW     7   COL    14   RATE     0.00000    
 BOUNDARY    105   LAYER   1   ROW     7   COL    15   RATE     0.00000    
 BOUNDARY    106   LAYER   1   ROW     8   COL     1   RATE     0.00000    
 BOUNDARY    107   LAYER   1   ROW     8   COL     2   RATE    -13.4065    
 BOUNDARY    108   LAYER   1   ROW     8   COL     3   RATE   -100.0000    
 BOUNDARY    109   LAYER   1   ROW     8   COL     4   RATE   -100.0000    
 BOUNDARY    110   LAYER   1   ROW     8   COL     5   RATE   -100.0000    
 BOUNDARY    111   LAYER   1   ROW     8   COL     6   RATE   -100.0000    
 BOUNDARY    112   LAYER   1   ROW     8   COL     7   RATE   -100.0000    
 BOUNDARY    113   LAYER   1   ROW     8   COL     8   RATE   -100.0000    
 BOUNDARY    114   LAYER   1   ROW     8   COL     9   RATE   -100.0000    
 BOUNDARY    115   LAYER   1   ROW     8   COL    10   RATE   -100.0000    
 BOUNDARY    116   LAYER   1   ROW     8   COL    11   RATE   -100.0000    
 BOUNDARY    117   LAYER   1   ROW     8   COL    12   RATE    -29.3555    
 BOUNDARY    118   LAYER   1   ROW     8   COL    13   RATE    -4.18613    
 BOUNDARY    119   LAYER   1   ROW     8   COL    14   RATE     0.00000    
 BOUNDARY    120   LAYER   1   ROW     8   COL    15   RATE     0.00000    
 BOUNDARY    121   LAYER   1   ROW     9   COL     1   RATE    -21.0059    
 BOUNDARY    122   LAYER   1   ROW     9   COL     2   RATE    -71.9382    
 BOUNDARY    123   LAYER   1   ROW     9   COL     3   RATE   -100.0000    
 BOUNDARY    124   LAYER   1   ROW     9   COL     4   RATE   -100.0000    
 BOUNDARY    125   LAYER   1   ROW     9   COL     5   RATE   -100.0000    
 BOUNDARY    126   LAYER   1   ROW     9   COL     6   RATE   -100.0000    
 BOUNDARY    127   LAYER   1   ROW     9   COL     7   RATE   -100.0000    
 BOUNDARY    128   LAYER   1   ROW     9   COL     8   RATE   -100.0000    
 BOUNDARY    129   LAYER   1   ROW     9   COL     9   RATE   -100.0000    
 BOUNDARY    130   LAYER   1   ROW     9   COL    10   RATE   -100.0000    
 BOUNDARY    131   LAYER   1   ROW     9   COL    11   RATE   -100.0000    
 BOUNDARY    132   LAYER   1   ROW     9   COL    12   RATE    -32.5537    
 BOUNDARY    133   LAYER   1   ROW     9   COL    13   RATE    -5.04406    
 BOUNDARY    134   LAYER   1   ROW     9   COL    14   RATE     0.00000    
 BOUNDARY    135   LAYER   1   ROW     9   COL    15   RATE     0.00000    
 BOUNDARY    136   LAYER   1   ROW    10   COL     1   RATE    -80.1265    
 BOUNDARY    137   LAYER   1   ROW    10   COL     2   RATE   -100.0000    
 BOUNDARY    138   LAYER   1   ROW    10   COL     3   RATE   -100.0000    
 BOUNDARY    139   LAYER   1   ROW    10   COL     4   RATE   -100.0000    
 BOUNDARY    140   LAYER   1   ROW    10   COL     5   RATE   -100.0000    
 BOUNDARY    141   LAYER   1   ROW    10   COL     6   RATE   -100.0000    
 BOUNDARY    142   LAYER   1   ROW    10   COL     7   RATE   -100.0000    
 BOUNDARY    143   LAYER   1   ROW    10   COL     8   RATE   -100.0000    
 BOUNDARY    144   LAYER   1   ROW    10   COL     9   RATE   -100.0000    
 BOUNDARY    145   LAYER   1   ROW    10   COL    10   RATE   -100.0000    
 BOUNDARY    146   LAYER   1   ROW    10   COL    11   RATE   -100.0000    
 BOUNDARY    147   LAYER   1   ROW    10   COL    12   RATE    -36.7821    
 BOUNDARY    148   LAYER   1   ROW    10   COL    13   RATE    -5.59062    
 BOUNDARY    149   LAYER   1   ROW    10   COL    14   RATE     0.00000    
 BOUNDARY    150   LAYER   1   ROW    10   COL    15   RATE     0.00000    

 HEAD WILL BE SAVED ON UNIT 1017 AT END OF TIME STEP    2, STRESS PERIOD    5
WEL   no.    1 value from time series:   0.0000     for time:  93.00     to  94.00    
WEL   no.    2 value from time series:   0.0000     for time:  93.00     to  94.00    
RIV   no.    1 value from time series:   101.00     for time:  93.00     to  94.00    
RIV   no.    2 value from time series:   101.00     for time:  93.00     to  94.00    
RIV   no.    3 value from time series:   111.50     for time:  93.00     to  94.00    
RIV   no.    4 value from time series:   111.50     for time:  93.00     to  94.00    
RIV   no.    5 value from time series:   115.10     for time:  93.00     to  94.00    
RIV   no.    6 value from time series:   115.10     for time:  93.00     to  94.00    
RIV   no.    7 value from time series:   104.00     for time:  93.00     to  94.00    
RIV   no.    8 value from time series:   104.00     for time:  93.00     to  94.00    
RIV   no.    9 value from time series:   113.50     for time:  93.00     to  94.00    
RIV   no.   10 value from time series:   113.50     for time:  93.00     to  94.00    
WEL   no.    1 value from time series:   0.0000     for time:  93.00     to  94.00    
WEL   no.    2 value from time series:   0.0000     for time:  93.00     to  94.00    
RIV   no.    1 value from time series:   101.00     for time:  93.00     to  94.00    
RIV   no.    2 value from time series:   101.00     for time:  93.00     to  94.00    
RIV   no.    3 value from time series:   111.50     for time:  93.00     to  94.00    
RIV   no.    4 value from time series:   111.50     for time:  93.00     to  94.00    
RIV   no.    5 value from time series:   115.10     for time:  93.00     to  94.00    
RIV   no.    6 value from time series:   115.10     for time:  93.00     to  94.00    
RIV   no.    7 value from time series:   104.00     for time:  93.00     to  94.00    
RIV   no.    8 value from time series:   104.00     for time:  93.00     to  94.00    
RIV   no.    9 value from time series:   113.50     for time:  93.00     to  94.00    
RIV   no.   10 value from time series:   113.50     for time:  93.00     to  94.00    

 OUTPUT CONTROL FOR STRESS PERIOD    5   TIME STEP    3
    SAVE BUDGET
    SAVE HEAD
    SAVE HEAD FOR ALL LAYERS
 UBDSV1 SAVING          STORAGE ON UNIT   1016 AT TIME STEP      3, STRESS PERIOD      5
 UBDSV1 SAVING FLOW RIGHT FACE  ON UNIT   1016 AT TIME STEP      3, STRESS PERIOD      5
 UBDSV1 SAVING FLOW FRONT FACE  ON UNIT   1016 AT TIME STEP      3, STRESS PERIOD      5
 UBDSV1 SAVING FLOW LOWER FACE  ON UNIT   1016 AT TIME STEP      3, STRESS PERIOD      5
 UBDSV4 SAVING WELLS NEAR RIVER ON UNIT   1016 AT TIME STEP      3, STRESS PERIOD      5

 WELLS NEAR RIVER   PERIOD  5   STEP  3
 BOUNDARY      1   LAYER   2   ROW     8   COL     4   RATE     0.00000      WELL_2
 BOUNDARY      2   LAYER   2   ROW     3   COL     4   RATE     0.00000      WELL_1
 UBDSV4 SAVING RIVER            ON UNIT   1016 AT TIME STEP      3, STRESS PERIOD      5

 RIVER              PERIOD  5   STEP  3
 BOUNDARY      1   LAYER   1   ROW     1   COL    15   RATE    -4878.25    
 BOUNDARY      2   LAYER   1   ROW     2   COL    15   RATE    -6002.23      RIV2
 BOUNDARY      3   LAYER   1   ROW     3   COL    15   RATE    -2268.12      RIV3
 BOUNDARY      4   LAYER   1   ROW     4   COL    15   RATE    -3731.31    
 BOUNDARY      5   LAYER   1   ROW     5   COL    15   RATE    -2369.60    
 BOUNDARY      6   LAYER   1   ROW     6   COL    15   RATE    -1717.54    
 BOUNDARY      7   LAYER   1   ROW     7   COL    15   RATE    -6199.36      RIVX
 BOUNDARY      8   LAYER   1   ROW     8   COL    15   RATE    -6047.02      RIVX
 BOUNDARY      9   LAYER   1   ROW     9   COL    15   RATE    -2256.39      RIVX
 BOUNDARY     10   LAYER   1   ROW    10   COL    15   RATE    -3160.79    

 GHB LAKES          PERIOD  5   STEP  3
 BOUNDARY      1   LAYER   1   ROW     3   COL     1   RATE    -14716.0    
 BOUNDARY      2   LAYER   1   ROW     7   COL     1   RATE    -2035.58      GHB2_UPPER
 BOUNDARY      3   LAYER   1   ROW     7   COL     1   RATE    -13304.8      GHB2_LOWER
 UBDSV4 SAVING RECHARGE         ON UNIT   1016 AT TIME STEP      3, STRESS PERIOD      5

 RECHARGE           PERIOD  5   STEP  3
 BOUNDARY      1   LAYER   1   ROW     1   COL     1   RATE     736.667    
 BOUNDARY      2   LAYER   1   ROW     1   COL     2   RATE     736.667    
 BOUNDARY      3   LAYER   1   ROW     1   COL     3   RATE     736.667    
 BOUNDARY      4   LAYER   1   ROW     1   COL     4   RATE     736.667    
 BOUNDARY      5   LAYER   1   ROW     1   COL     5   RATE     736.667    
 BOUNDARY      6   LAYER   1   ROW     1   COL     6   RATE     736.667    
 BOUNDARY      7   LAYER   1   ROW     1   COL     7   RATE     736.667    
 BOUNDARY      8   LAYER   1   ROW     1   COL     8   RATE     736.667    
 BOUNDARY      9   LAYER   1   ROW     1   COL     9   RATE     736.667    
 BOUNDARY     10   LAYER   1   ROW     1   COL    10   RATE     736.667    
 BOUNDARY     11   LAYER   1   ROW     1   COL    11   RATE     736.667    
 BOUNDARY     12   LAYER   1   ROW     1   COL    12   RATE     736.667    
 BOUNDARY     13   LAYER   1   ROW     1   COL    13   RATE     736.667    
 BOUNDARY     14   LAYER   1   ROW     1   COL    14   RATE     736.667    
 BOUNDARY     15   LAYER   1   ROW     1   COL    15   RATE     736.667    
 BOUNDARY     16   LAYER   1   ROW     2   COL     1   RATE     736.667    
 BOUNDARY     17   LAYER   1   ROW     2   COL     2   RATE     736.667    
 BOUNDARY     18   LAYER   1   ROW     2   COL     3   RATE     736.667    
 BOUNDARY     19   LAYER   1   ROW     2   COL     4   RATE     736.667    
 BOUNDARY     20   LAYER   1   ROW     2   COL     5   RATE     736.667    
 BOUNDARY     21   LAYER   1   ROW     2   COL     6   RATE     736.667    
 BOUNDARY     22   LAYER   1   ROW     2   COL     7   RATE     736.667    
 BOUNDARY     23   LAYER   1   ROW     2   COL     8   RATE     736.667    
 BOUNDARY     24   LAYER   1   ROW     2   COL     9   RATE     736.667    
 BOUNDARY     25   LAYER   1   ROW     2   COL    10   RATE     736.667    
 BOUNDARY     26   LAYER   1   ROW     2   COL    11   RATE     736.667    
 BOUNDARY     27   LAYER   1   ROW     2   COL    12   RATE     736.667    
 BOUNDARY     28   LAYER   1   ROW     2   COL    13   RATE     736.667    
 BOUNDARY     29   LAYER   1   ROW     2   COL    14   RATE     736.667    
 BOUNDARY     30   LAYER   1   ROW     2   COL    15   RATE     736.667    
 BOUNDARY     31   LAYER   1   ROW     3   COL     1   RATE     736.667    
 BOUNDARY     32   LAYER   1   ROW     3   COL     2   RATE     736.667    
 BOUNDARY     33   LAYER   1   ROW     3   COL     3   RATE     736.667    
 BOUNDARY     34   LAYER   1   ROW     3   COL     4   RATE     736.667    
 BOUNDARY     35   LAYER   1   ROW     3   COL     5   RATE     736.667    
 BOUNDARY     36   LAYER   1   ROW     3   COL     6   RATE     736.667    
 BOUNDARY     37   LAYER   1   ROW     3   COL     7   RATE     736.667    
 BOUNDARY     38   LAYER   1   ROW     3   COL     8   RATE     736.667    
 BOUNDARY     39   LAYER   1   ROW     3   COL     9   RATE     736.667    
 BOUNDARY     40   LAYER   1   ROW     3   COL    10   RATE     736.667    
 BOUNDARY     41   LAYER   1   ROW     3   COL    11   RATE     736.667    
 BOUNDARY     42   LAYER   1   ROW     3   COL    12   RATE     736.667    
 BOUNDARY     43   LAYER   1   ROW     3   COL    13   RATE     736.667    
 BOUNDARY     44   LAYER   1   ROW     3   COL    14   RATE     736.667    
 BOUNDARY     45   LAYER   1   ROW     3   COL    15   RATE     736.667    
 BOUNDARY     46   LAYER   1   ROW     4   COL     1   RATE     736.667    
 BOUNDARY     47   LAYER   1   ROW     4   COL     2   RATE     736.667    
 BOUNDARY     48   LAYER   1   ROW     4   COL     3   RATE     736.667    
 BOUNDARY     49   LAYER   1   ROW     4   COL     4   RATE     736.667    
 BOUNDARY     50   LAYER   1   ROW     4   COL     5   RATE     736.667    
 BOUNDARY     51   LAYER   1   ROW     4   COL     6   RATE     736.667    
 BOUNDARY     52   LAYER   1   ROW     4   COL     7   RATE     736.667    
 BOUNDARY     53   LAYER   1   ROW     4   COL     8   RATE     736.667    
 BOUNDARY     54   LAYER   1   ROW     4   COL     9   RATE     736.667    
 BOUNDARY     55   LAYER   1   ROW     4   COL    10   RATE     736.667    
 BOUNDARY     56   LAYER   1   ROW     4   COL    11   RATE     736.667    
 BOUNDARY     57   LAYER   1   ROW     4   COL    12   RATE     736.667    
 BOUNDARY     58   LAYER   1   ROW     4   COL    13   RATE     736.667    
 BOUNDARY     59   LAYER   1   ROW     4   COL    14   RATE     736.667    
 BOUNDARY     60   LAYER   1   ROW     4   COL    15   RATE     736.667    
 BOUNDARY     61   LAYER   1   ROW     5   COL     1   RATE     736.667    
 BOUNDARY     62   LAYER   1   ROW     5   COL     2   RATE     736.667    
 BOUNDARY     63   LAYER   1   ROW     5   COL     3   RATE     736.667    
 BOUNDARY     64   LAYER   1   ROW     5   COL     4   RATE     736.667    
 BOUNDARY     65   LAYER   1   ROW     5   COL     5   RATE     736.667    
 BOUNDARY     66   LAYER   1   ROW     5   COL     6   RATE     736.667    
 BOUNDARY     67   LAYER   1   ROW     5   COL     7   RATE     736.667    
 BOUNDARY     68   LAYER   1   ROW     5   COL     8   RATE     736.667    
 BOUNDARY     69   LAYER   1   ROW     5   COL     9   RATE     736.667    
 BOUNDARY     70   LAYER   1   ROW     5   COL    10   RATE     736.667    
 BOUNDARY     71   LAYER   1   ROW     5   COL    11   RATE     736.667    
 BOUNDARY     72   LAYER   1   ROW     5   COL    12   RATE     736.667    
 BOUNDARY     73   LAYER   1   ROW     5   COL    13   RATE     736.667    
 BOUNDARY     74   LAYER   1   ROW     5   COL    14   RATE     736.667    
 BOUNDARY     75   LAYER   1   ROW     5   COL    15   RATE     736.667    
 BOUNDARY     76   LAYER   1   ROW     6   COL     1   RATE     736.667    
 BOUNDARY     77   LAYER   1   ROW     6   COL     2   RATE     736.667    
 BOUNDARY     78   LAYER   1   ROW     6   COL     3   RATE     736.667    
 BOUNDARY     79   LAYER   1   ROW     6   COL     4   RATE     736.667    
 BOUNDARY     80   LAYER   1   ROW     6   COL     5   RATE     736.667    
 BOUNDARY     81   LAYER   1   ROW     6   COL     6   RATE     736.667    
 BOUNDARY     82   LAYER   1   ROW     6   COL     7   RATE     736.667    
 BOUNDARY     83   LAYER   1   ROW     6   COL     8   RATE     736.667    
 BOUNDARY     84   LAYER   1   ROW     6   COL     9   RATE     736.667    
 BOUNDARY     85   LAYER   1   ROW     6   COL    10   RATE     736.667    
 BOUNDARY     86   LAYER   1   ROW     6   COL    11   RATE     736.667    
 BOUNDARY     87   LAYER   1   ROW     6   COL    12   RATE     736.667    
 BOUNDARY     88   LAYER   1   ROW     6   COL    13   RATE     736.667    
 BOUNDARY     89   LAYER   1   ROW     6   COL    14   RATE     736.667    
 BOUNDARY     90   LAYER   1   ROW     6   COL    15   RATE     736.667    
 BOUNDARY     91   LAYER   1   ROW     7   COL     1   RATE     736.667    
 BOUNDARY     92   LAYER   1   ROW     7   COL     2   RATE     736.667    
 BOUNDARY     93   LAYER   1   ROW     7   COL     3   RATE     736.667    
 BOUNDARY     94   LAYER   1   ROW     7   COL     4   RATE     736.667    
 BOUNDARY     95   LAYER   1   ROW     7   COL     5   RATE     736.667    
 BOUNDARY     96   LAYER   1   ROW     7   COL     6   RATE     736.667    
 BOUNDARY     97   LAYER   1   ROW     7   COL     7   RATE     736.667    
 BOUNDARY     98   LAYER   1   ROW     7   COL     8   RATE     736.667    
 BOUNDARY     99   LAYER   1   ROW     7   COL     9   RATE     736.667    
 BOUNDARY    100   LAYER   1   ROW     7   COL    10   RATE     736.667    
 BOUNDARY    101   LAYER   1   ROW     7   COL    11   RATE     736.667    
 BOUNDARY    102   LAYER   1   ROW     7   COL    12   RATE     736.667    
 BOUNDARY    103   LAYER   1   ROW     7   COL    13   RATE     736.667    
 BOUNDARY    104   LAYER   1   ROW     7   COL    14   RATE     736.667    
 BOUNDARY    105   LAYER   1   ROW     7   COL    15   RATE     736.667    
 BOUNDARY    106   LAYER   1   ROW     8   COL     1   RATE     736.667    
 BOUNDARY    107   LAYER   1   ROW     8   COL     2   RATE     736.667    
 BOUNDARY    108   LAYER   1   ROW     8   COL     3   RATE     736.667    
 BOUNDARY    109   LAYER   1   ROW     8   COL     4   RATE     736.667    
 BOUNDARY    110   LAYER   1   ROW     8   COL     5   RATE     736.667    
 BOUNDARY    111   LAYER   1   ROW     8   COL     6   RATE     736.667    
 BOUNDARY    112   LAYER   1   ROW     8   COL     7   RATE     736.667    
 BOUNDARY    113   LAYER   1   ROW     8   COL     8   RATE     736.667    
 BOUNDARY    114   LAYER   1   ROW     8   COL     9   RATE     736.667    
 BOUNDARY    115   LAYER   1   ROW     8   COL    10   RATE     736.667    
 BOUNDARY    116   LAYER   1   ROW     8   COL    11   RATE     736.667    
 BOUNDARY    117   LAYER   1   ROW     8   COL    12   RATE     736.667    
 BOUNDARY    118   LAYER   1   ROW     8   COL    13   RATE     736.667    
 BOUNDARY    119   LAYER   1   ROW     8   COL    14   RATE     736.667    
 BOUNDARY    120   LAYER   1   ROW     8   COL    15   RATE     736.667    
 BOUNDARY    121   LAYER   1   ROW     9   COL     1   RATE     736.667    
 BOUNDARY    122   LAYER   1   ROW     9   COL     2   RATE     736.667    
 BOUNDARY    123   LAYER   1   ROW     9   COL     3   RATE     736.667    
 BOUNDARY    124   LAYER   1   ROW     9   COL     4   RATE     736.667    
 BOUNDARY    125   LAYER   1   ROW     9   COL     5   RATE     736.667    
 BOUNDARY    126   LAYER   1   ROW     9   COL     6   RATE     736.667    
 BOUNDARY    127   LAYER   1   ROW     9   COL     7   RATE     736.667    
 BOUNDARY    128   LAYER   1   ROW     9   COL     8   RATE     736.667    
 BOUNDARY    129   LAYER   1   ROW     9   COL     9   RATE     736.667    
 BOUNDARY    130   LAYER   1   ROW     9   COL    10   RATE     736.667    
 BOUNDARY    131   LAYER   1   ROW     9   COL    11   RATE     736.667    
 BOUNDARY    132   LAYER   1   ROW     9   COL    12   RATE     736.667    
 BOUNDARY    133   LAYER   1   ROW     9   COL    13   RATE     736.667    
 BOUNDARY    134   LAYER   1   ROW     9   COL    14   RATE     736.667    
 BOUNDARY    135   LAYER   1   ROW     9   COL    15   RATE     736.667    
 BOUNDARY    136   LAYER   1   ROW    10   COL     1   RATE     736.667    
 BOUNDARY    137   LAYER   1   ROW    10   COL     2   RATE     736.667    
 BOUNDARY    138   LAYER   1   ROW    10   COL     3   RATE     736.667    
 BOUNDARY    139   LAYER   1   ROW    10   COL     4   RATE     736.667    
 BOUNDARY    140   LAYER   1   ROW    10   COL     5   RATE     736.667    
 BOUNDARY    141   LAYER   1   ROW    10   COL     6   RATE     736.667    
 BOUNDARY    142   LAYER   1   ROW    10   COL     7   RATE     736.667    
 BOUNDARY    143   LAYER   1   ROW    10   COL     8   RATE     736.667    
 BOUNDARY    144   LAYER   1   ROW    10   COL     9   RATE     736.667    
 BOUNDARY    145   LAYER   1   ROW    10   COL    10   RATE     736.667    
 BOUNDARY    146   LAYER   1   ROW    10   COL    11   RATE     736.667    
 BOUNDARY    147   LAYER   1   ROW    10   COL    12   RATE     736.667    
 BOUNDARY    148   LAYER   1   ROW    10   COL    13   RATE     736.667    
 BOUNDARY    149   LAYER   1   ROW    10   COL    14   RATE     736.667    
 BOUNDARY    150   LAYER   1   ROW    10   COL    15   RATE     736.667    
 UBDSV4 SAVING ET SEGS          ON UNIT   1016 AT TIME STEP      3, STRESS PERIOD      5

 ET SEGS            PERIOD  5   STEP  3
 BOUNDARY      1   LAYER   1   ROW     1   COL     1   RATE    -2.82090    
 BOUNDARY      2   LAYER   1   ROW     1   COL     2   RATE    -9.67567    
 BOUNDARY      3   LAYER   1   ROW     1   COL     3   RATE    -60.6928    
 BOUNDARY      4   LAYER   1   ROW     1   COL     4   RATE   -100.0000    
 BOUNDARY      5   LAYER   1   ROW     1   COL     5   RATE   -100.0000    
 BOUNDARY      6   LAYER   1   ROW     1   COL     6   RATE   -100.0000    
 BOUNDARY      7   LAYER   1   ROW     1   COL     7   RATE   -100.0000    
 BOUNDARY      8   LAYER   1   ROW     1   COL     8   RATE   -100.0000    
 BOUNDARY      9   LAYER   1   ROW     1   COL     9   RATE   -100.0000    
 BOUNDARY     10   LAYER   1   ROW     1   COL    10   RATE   -100.0000    
 BOUNDARY     11   LAYER   1   ROW     1   COL    11   RATE   -100.0000    
 BOUNDARY     12   LAYER   1   ROW     1   COL    12   RATE    -19.1251    
 BOUNDARY     13   LAYER   1   ROW     1   COL    13   RATE     0.00000    
 BOUNDARY     14   LAYER   1   ROW     1   COL    14   RATE     0.00000    
 BOUNDARY     15   LAYER   1   ROW     1   COL    15   RATE     0.00000    
 BOUNDARY     16   LAYER   1   ROW     2   COL     1   RATE     0.00000    
 BOUNDARY     17   LAYER   1   ROW     2   COL     2   RATE    -5.14480    
 BOUNDARY     18   LAYER   1   ROW     2   COL     3   RATE    -32.5099    
 BOUNDARY     19   LAYER   1   ROW     2   COL     4   RATE   -100.0000    
 BOUNDARY     20   LAYER   1   ROW     2   COL     5   RATE   -100.0000    
 BOUNDARY     21   LAYER   1   ROW     2   COL     6   RATE   -100.0000    
 BOUNDARY     22   LAYER   1   ROW     2   COL     7   RATE   -100.0000    
 BOUNDARY     23   LAYER   1   ROW     2   COL     8   RATE   -100.0000    
 BOUNDARY     24   LAYER   1   ROW     2   COL     9   RATE   -100.0000    
 BOUNDARY     25   LAYER   1   ROW     2   COL    10   RATE   -100.0000    
 BOUNDARY     26   LAYER   1   ROW     2   COL    11   RATE   -100.0000    
 BOUNDARY     27   LAYER   1   ROW     2   COL    12   RATE    -20.8669    
 BOUNDARY     28   LAYER   1   ROW     2   COL    13   RATE   -0.810932    
 BOUNDARY     29   LAYER   1   ROW     2   COL    14   RATE     0.00000    
 BOUNDARY     30   LAYER   1   ROW     2   COL    15   RATE     0.00000    
 BOUNDARY     31   LAYER   1   ROW     3   COL     1   RATE     0.00000    
 BOUNDARY     32   LAYER   1   ROW     3   COL     2   RATE     0.00000    
 BOUNDARY     33   LAYER   1   ROW     3   COL     3   RATE    -24.5054    
 BOUNDARY     34   LAYER   1   ROW     3   COL     4   RATE   -100.0000    
 BOUNDARY     35   LAYER   1   ROW     3   COL     5   RATE   -100.0000    
 BOUNDARY     36   LAYER   1   ROW     3   COL     6   RATE   -100.0000    
 BOUNDARY     37   LAYER   1   ROW     3   COL     7   RATE   -100.0000    
 BOUNDARY     38   LAYER   1   ROW     3   COL     8   RATE   -100.0000    
 BOUNDARY     39   LAYER   1   ROW     3   COL     9   RATE   -100.0000    
 BOUNDARY     40   LAYER   1   ROW     3   COL    10   RATE   -100.0000    
 BOUNDARY     41   LAYER   1   ROW     3   COL    11   RATE   -100.0000    
 BOUNDARY     42   LAYER   1   ROW     3   COL    12   RATE    -23.8032    
 BOUNDARY     43   LAYER   1   ROW     3   COL    13   RATE    -2.60501    
 BOUNDARY     44   LAYER   1   ROW     3   COL    14   RATE     0.00000    
 BOUNDARY     45   LAYER   1   ROW     3   COL    15   RATE     0.00000    
 BOUNDARY     46   LAYER   1   ROW     4   COL     1   RATE     0.00000    
 BOUNDARY     47   LAYER   1   ROW     4   COL     2   RATE    -3.63788    
 BOUNDARY     48   LAYER   1   ROW     4   COL     3   RATE    -28.4042    
 BOUNDARY     49   LAYER   1   ROW     4   COL     4   RATE   -100.0000    
 BOUNDARY     50   LAYER   1   ROW     4   COL     5   RATE   -100.0000    
 BOUNDARY     51   LAYER   1   ROW     4   COL     6   RATE   -100.0000    
 BOUNDARY     52   LAYER   1   ROW     4   COL     7   RATE   -100.0000    
 BOUNDARY     53   LAYER   1   ROW     4   COL     8   RATE   -100.0000    
 BOUNDARY     54   LAYER   1   ROW     4   COL     9   RATE   -100.0000    
 BOUNDARY     55   LAYER   1   ROW     4   COL    10   RATE   -100.0000    
 BOUNDARY     56   LAYER   1   ROW     4   COL    11   RATE   -100.0000    
 BOUNDARY     57   LAYER   1   ROW     4   COL    12   RATE    -26.5900    
 BOUNDARY     58   LAYER   1   ROW     4   COL    13   RATE    -4.05623    
 BOUNDARY     59   LAYER   1   ROW     4   COL    14   RATE     0.00000    
 BOUNDARY     60   LAYER   1   ROW     4   COL    15   RATE     0.00000    
 BOUNDARY     61   LAYER   1   ROW     5   COL     1   RATE     0.00000    
 BOUNDARY     62   LAYER   1   ROW     5   COL     2   RATE    -6.61987    
 BOUNDARY     63   LAYER   1   ROW     5   COL     3   RATE    -42.4449    
 BOUNDARY     64   LAYER   1   ROW     5   COL     4   RATE   -100.0000    
 BOUNDARY     65   LAYER   1   ROW     5   COL     5   RATE   -100.0000    
 BOUNDARY     66   LAYER   1   ROW     5   COL     6   RATE   -100.0000    
 BOUNDARY     67   LAYER   1   ROW     5   COL     7   RATE   -100.0000    
 BOUNDARY     68   LAYER   1   ROW     5   COL     8   RATE   -100.0000    
 BOUNDARY     69   LAYER   1   ROW     5   COL     9   RATE   -100.0000    
 BOUNDARY     70   LAYER   1   ROW     5   COL    10   RATE   -100.0000    
 BOUNDARY     71   LAYER   1   ROW     5   COL    11   RATE   -100.0000    
 BOUNDARY     72   LAYER   1   ROW     5   COL    12   RATE    -28.5044    
 BOUNDARY     73   LAYER   1   ROW     5   COL    13   RATE    -4.93990    
 BOUNDARY     74   LAYER   1   ROW     5   COL    14   RATE     0.00000    
 BOUNDARY     75   LAYER   1   ROW     5   COL    15   RATE     0.00000    
 BOUNDARY     76   LAYER   1   ROW     6   COL     1   RATE     0.00000    
 BOUNDARY     77   LAYER   1   ROW     6   COL     2   RATE    -5.17543    
 BOUNDARY     78   LAYER   1   ROW     6   COL     3   RATE    -46.2246    
 BOUNDARY     79   LAYER   1   ROW     6   COL     4   RATE   -100.0000    
 BOUNDARY     80   LAYER   1   ROW     6   COL     5   RATE   -100.0000    
 BOUNDARY     81   LAYER   1   ROW     6   COL     6   RATE   -100.0000    
 BOUNDARY     82   LAYER   1   ROW     6   COL     7   RATE   -100.0000    
 BOUNDARY     83   LAYER   1   ROW     6   COL     8   RATE   -100.0000    
 BOUNDARY     84   LAYER   1   ROW     6   COL     9   RATE   -100.0000    
 BOUNDARY     85   LAYER   1   ROW     6   COL    10   RATE   -100.0000    
 BOUNDARY     86   LAYER   1   ROW     6   COL    11   RATE   -100.0000    
 BOUNDARY     87   LAYER   1   ROW     6   COL    12   RATE    -29.1471    
 BOUNDARY     88   LAYER   1   ROW     6   COL    13   RATE    -4.89107    
 BOUNDARY     89   LAYER   1   ROW     6   COL    14   RATE     0.00000    
 BOUNDARY     90   LAYER   1   ROW     6   COL    15   RATE     0.00000    
 BOUNDARY     91   LAYER   1   ROW     7   COL     1   RATE     0.00000    
 BOUNDARY     92   LAYER   1   ROW     7   COL     2   RATE    -1.63717    
 BOUNDARY     93   LAYER   1   ROW     7   COL     3   RATE    -53.0267    
 BOUNDARY     94   LAYER   1   ROW     7   COL     4   RATE   -100.0000    
 BOUNDARY     95   LAYER   1   ROW     7   COL     5   RATE   -100.0000    
 BOUNDARY     96   LAYER   1   ROW     7   COL     6   RATE   -100.0000    
 BOUNDARY     97   LAYER   1   ROW     7   COL     7   RATE   -100.0000    
 BOUNDARY     98   LAYER   1   ROW     7   COL     8   RATE   -100.0000    
 BOUNDARY     99   LAYER   1   ROW     7   COL     9   RATE   -100.0000    
 BOUNDARY    100   LAYER   1   ROW     7   COL    10   RATE   -100.0000    
 BOUNDARY    101   LAYER   1   ROW     7   COL    11   RATE   -100.0000    
 BOUNDARY    102   LAYER   1   ROW     7   COL    12   RATE    -29.0008    
 BOUNDARY    103   LAYER   1   ROW     7   COL    13   RATE    -4.17335    
 BOUNDARY    104   LAYER   1   ROW     7   COL    14   RATE     0.00000    
 BOUNDARY    105   LAYER   1   ROW     7   COL    15   RATE     0.00000    
 BOUNDARY    106   LAYER   1   ROW     8   COL     1   RATE     0.00000    
 BOUNDARY    107   LAYER   1   ROW     8   COL     2   RATE    -13.4649    
 BOUNDARY    108   LAYER   1   ROW     8   COL     3   RATE   -100.0000    
 BOUNDARY    109   LAYER   1   ROW     8   COL     4   RATE   -100.0000    
 BOUNDARY    110   LAYER   1   ROW     8   COL     5   RATE   -100.0000    
 BOUNDARY    111   LAYER   1   ROW     8   COL     6   RATE   -100.0000    
 BOUNDARY    112   LAYER   1   ROW     8   COL     7   RATE   -100.0000    
 BOUNDARY    113   LAYER   1   ROW     8   COL     8   RATE   -100.0000    
 BOUNDARY    114   LAYER   1   ROW     8   COL     9   RATE   -100.0000    
 BOUNDARY    115   LAYER   1   ROW     8   COL    10   RATE   -100.0000    
 BOUNDARY    116   LAYER   1   ROW     8   COL    11   RATE   -100.0000    
 BOUNDARY    117   LAYER   1   ROW     8   COL    12   RATE    -29.4175    
 BOUNDARY    118   LAYER   1   ROW     8   COL    13   RATE    -4.20438    
 BOUNDARY    119   LAYER   1   ROW     8   COL    14   RATE     0.00000    
 BOUNDARY    120   LAYER   1   ROW     8   COL    15   RATE     0.00000    
 BOUNDARY    121   LAYER   1   ROW     9   COL     1   RATE    -21.0647    
 BOUNDARY    122   LAYER   1   ROW     9   COL     2   RATE    -72.2502    
 BOUNDARY    123   LAYER   1   ROW     9   COL     3   RATE   -100.0000    
 BOUNDARY    124   LAYER   1   ROW     9   COL     4   RATE   -100.0000    
 BOUNDARY    125   LAYER   1   ROW     9   COL     5   RATE   -100.0000    
 BOUNDARY    126   LAYER   1   ROW     9   COL     6   RATE   -100.0000    
 BOUNDARY    127   LAYER   1   ROW     9   COL     7   RATE   -100.0000    
 BOUNDARY    128   LAYER   1   ROW     9   COL     8   RATE   -100.0000    
 BOUNDARY    129   LAYER   1   ROW     9   COL     9   RATE   -100.0000    
 BOUNDARY    130   LAYER   1   ROW     9   COL    10   RATE   -100.0000    
 BOUNDARY    131   LAYER   1   ROW     9   COL    11   RATE   -100.0000    
 BOUNDARY    132   LAYER   1   ROW     9   COL    12   RATE    -32.8799    
 BOUNDARY    133   LAYER   1   ROW     9   COL    13   RATE    -5.06278    
 BOUNDARY    134   LAYER   1   ROW     9   COL    14   RATE     0.00000    
 BOUNDARY    135   LAYER   1   ROW     9   COL    15   RATE     0.00000    
 BOUNDARY    136   LAYER   1   ROW    10   COL     1   RATE    -80.4375    
 BOUNDARY    137   LAYER   1   ROW    10   COL     2   RATE   -100.0000    
 BOUNDARY    138   LAYER   1   ROW    10   COL     3   RATE   -100.0000    
 BOUNDARY    139   LAYER   1   ROW    10   COL     4   RATE   -100.0000    
 BOUNDARY    140   LAYER   1   ROW    10   COL     5   RATE   -100.0000    
 BOUNDARY    141   LAYER   1   ROW    10   COL     6   RATE   -100.0000    
 BOUNDARY    142   LAYER   1   ROW    10   COL     7   RATE   -100.0000    
 BOUNDARY    143   LAYER   1   ROW    10   COL     8   RATE   -100.0000    
 BOUNDARY    144   LAYER   1   ROW    10   COL     9   RATE   -100.0000    
 BOUNDARY    145   LAYER   1   ROW    10   COL    10   RATE   -100.0000    
 BOUNDARY    146   LAYER   1   ROW    10   COL    11   RATE   -100.0000    
 BOUNDARY    147   LAYER   1   ROW    10   COL    12   RATE    -37.1085    
 BOUNDARY    148   LAYER   1   ROW    10   COL    13   RATE    -5.60962    
 BOUNDARY    149   LAYER   1   ROW    10   COL    14   RATE     0.00000    
 BOUNDARY    150   LAYER   1   ROW    10   COL    15   RATE     0.00000    

 HEAD WILL BE SAVED ON UNIT 1017 AT END OF TIME STEP    3, STRESS PERIOD    5
WEL   no.    1 value from time series:   0.0000     for time:  94.00     to  95.00    
WEL   no.    2 value from time series:   0.0000     for time:  94.00     to  95.00    
RIV   no.    1 value from time series:   101.00     for time:  94.00     to  95.00    
RIV   no.    2 value from time series:   101.00     for time:  94.00     to  95.00    
RIV   no.    3 value from time series:   111.50     for time:  94.00     to  95.00    
RIV   no.    4 value from time series:   111.50     for time:  94.00     to  95.00    
RIV   no.    5 value from time series:   115.10     for time:  94.00     to  95.00    
RIV   no.    6 value from time series:   115.10     for time:  94.00     to  95.00    
RIV   no.    7 value from time series:   104.00     for time:  94.00     to  95.00    
RIV   no.    8 value from time series:   104.00     for time:  94.00     to  95.00    
RIV   no.    9 value from time series:   113.50     for time:  94.00     to  95.00    
RIV   no.   10 value from time series:   113.50     for time:  94.00     to  95.00    
WEL   no.    1 value from time series:   0.0000     for time:  94.00     to  95.00    
WEL   no.    2 value from time series:   0.0000     for time:  94.00     to  95.00    
RIV   no.    1 value from time series:   101.00     for time:  94.00     to  95.00    
RIV   no.    2 value from time series:   101.00     for time:  94.00     to  95.00    
RIV   no.    3 value from time series:   111.50     for time:  94.00     to  95.00    
RIV   no.    4 value from time series:   111.50     for time:  94.00     to  95.00    
RIV   no.    5 value from time series:   115.10     for time:  94.00     to  95.00    
RIV   no.    6 value from time series:   115.10     for time:  94.00     to  95.00    
RIV   no.    7 value from time series:   104.00     for time:  94.00     to  95.00    
RIV   no.    8 value from time series:   104.00     for time:  94.00     to  95.00    
RIV   no.    9 value from time series:   113.50     for time:  94.00     to  95.00    
RIV   no.   10 value from time series:   113.50     for time:  94.00     to  95.00    

 OUTPUT CONTROL FOR STRESS PERIOD    5   TIME STEP    4
    SAVE BUDGET
    SAVE HEAD
    SAVE HEAD FOR ALL LAYERS
 UBDSV1 SAVING          STORAGE ON UNIT   1016 AT TIME STEP      4, STRESS PERIOD      5
 UBDSV1 SAVING FLOW RIGHT FACE  ON UNIT   1016 AT TIME STEP      4, STRESS PERIOD      5
 UBDSV1 SAVING FLOW FRONT FACE  ON UNIT   1016 AT TIME STEP      4, STRESS PERIOD      5
 UBDSV1 SAVING FLOW LOWER FACE  ON UNIT   1016 AT TIME STEP      4, STRESS PERIOD      5
 UBDSV4 SAVING WELLS NEAR RIVER ON UNIT   1016 AT TIME STEP      4, STRESS PERIOD      5

 WELLS NEAR RIVER   PERIOD  5   STEP  4
 BOUNDARY      1   LAYER   2   ROW     8   COL     4   RATE     0.00000      WELL_2
 BOUNDARY      2   LAYER   2   ROW     3   COL     4   RATE     0.00000      WELL_1
 UBDSV4 SAVING RIVER            ON UNIT   1016 AT TIME STEP      4, STRESS PERIOD      5

 RIVER              PERIOD  5   STEP  4
 BOUNDARY      1   LAYER   1   ROW     1   COL    15   RATE    -4881.71    
 BOUNDARY      2   LAYER   1   ROW     2   COL    15   RATE    -6005.81      RIV2
 BOUNDARY      3   LAYER   1   ROW     3   COL    15   RATE    -2271.76      RIV3
 BOUNDARY      4   LAYER   1   ROW     4   COL    15   RATE    -3735.02    
 BOUNDARY      5   LAYER   1   ROW     5   COL    15   RATE    -2373.23    
 BOUNDARY      6   LAYER   1   ROW     6   COL    15   RATE    -1721.12    
 BOUNDARY      7   LAYER   1   ROW     7   COL    15   RATE    -6203.05      RIVX
 BOUNDARY      8   LAYER   1   ROW     8   COL    15   RATE    -6050.83      RIVX
 BOUNDARY      9   LAYER   1   ROW     9   COL    15   RATE    -2260.28      RIVX
 BOUNDARY     10   LAYER   1   ROW    10   COL    15   RATE    -3164.80    

 GHB LAKES          PERIOD  5   STEP  4
 BOUNDARY      1   LAYER   1   ROW     3   COL     1   RATE    -14722.6    
 BOUNDARY      2   LAYER   1   ROW     7   COL     1   RATE    -2040.89      GHB2_UPPER
 BOUNDARY      3   LAYER   1   ROW     7   COL     1   RATE    -13306.7      GHB2_LOWER
 UBDSV4 SAVING RECHARGE         ON UNIT   1016 AT TIME STEP      4, STRESS PERIOD      5

 RECHARGE           PERIOD  5   STEP  4
 BOUNDARY      1   LAYER   1   ROW     1   COL     1   RATE     740.000    
 BOUNDARY      2   LAYER   1   ROW     1   COL     2   RATE     740.000    
 BOUNDARY      3   LAYER   1   ROW     1   COL     3   RATE     740.000    
 BOUNDARY      4   LAYER   1   ROW     1   COL     4   RATE     740.000    
 BOUNDARY      5   LAYER   1   ROW     1   COL     5   RATE     740.000    
 BOUNDARY      6   LAYER   1   ROW     1   COL     6   RATE     740.000    
 BOUNDARY      7   LAYER   1   ROW     1   COL     7   RATE     740.000    
 BOUNDARY      8   LAYER   1   ROW     1   COL     8   RATE     740.000    
 BOUNDARY      9   LAYER   1   ROW     1   COL     9   RATE     740.000    
 BOUNDARY     10   LAYER   1   ROW     1   COL    10   RATE     740.000    
 BOUNDARY     11   LAYER   1   ROW     1   COL    11   RATE     740.000    
 BOUNDARY     12   LAYER   1   ROW     1   COL    12   RATE     740.000    
 BOUNDARY     13   LAYER   1   ROW     1   COL    13   RATE     740.000    
 BOUNDARY     14   LAYER   1   ROW     1   COL    14   RATE     740.000    
 BOUNDARY     15   LAYER   1   ROW     1   COL    15   RATE     740.000    
 BOUNDARY     16   LAYER   1   ROW     2   COL     1   RATE     740.000    
 BOUNDARY     17   LAYER   1   ROW     2   COL     2   RATE     740.000    
 BOUNDARY     18   LAYER   1   ROW     2   COL     3   RATE     740.000    
 BOUNDARY     19   LAYER   1   ROW     2   COL     4   RATE     740.000    
 BOUNDARY     20   LAYER   1   ROW     2   COL     5   RATE     740.000    
 BOUNDARY     21   LAYER   1   ROW     2   COL     6   RATE     740.000    
 BOUNDARY     22   LAYER   1   ROW     2   COL     7   RATE     740.000    
 BOUNDARY     23   LAYER   1   ROW     2   COL     8   RATE     740.000    
 BOUNDARY     24   LAYER   1   ROW     2   COL     9   RATE     740.000    
 BOUNDARY     25   LAYER   1   ROW     2   COL    10   RATE     740.000    
 BOUNDARY     26   LAYER   1   ROW     2   COL    11   RATE     740.000    
 BOUNDARY     27   LAYER   1   ROW     2   COL    12   RATE     740.000    
 BOUNDARY     28   LAYER   1   ROW     2   COL    13   RATE     740.000    
 BOUNDARY     29   LAYER   1   ROW     2   COL    14   RATE     740.000    
 BOUNDARY     30   LAYER   1   ROW     2   COL    15   RATE     740.000    
 BOUNDARY     31   LAYER   1   ROW     3   COL     1   RATE     740.000    
 BOUNDARY     32   LAYER   1   ROW     3   COL     2   RATE     740.000    
 BOUNDARY     33   LAYER   1   ROW     3   COL     3   RATE     740.000    
 BOUNDARY     34   LAYER   1   ROW     3   COL     4   RATE     740.000    
 BOUNDARY     35   LAYER   1   ROW     3   COL     5   RATE     740.000    
 BOUNDARY     36   LAYER   1   ROW     3   COL     6   RATE     740.000    
 BOUNDARY     37   LAYER   1   ROW     3   COL     7   RATE     740.000    
 BOUNDARY     38   LAYER   1   ROW     3   COL     8   RATE     740.000    
 BOUNDARY     39   LAYER   1   ROW     3   COL     9   RATE     740.000    
 BOUNDARY     40   LAYER   1   ROW     3   COL    10   RATE     740.000    
 BOUNDARY     41   LAYER   1   ROW     3   COL    11   RATE     740.000    
 BOUNDARY     42   LAYER   1   ROW     3   COL    12   RATE     740.000    
 BOUNDARY     43   LAYER   1   ROW     3   COL    13   RATE     740.000    
 BOUNDARY     44   LAYER   1   ROW     3   COL    14   RATE     740.000    
 BOUNDARY     45   LAYER   1   ROW     3   COL    15   RATE     740.000    
 BOUNDARY     46   LAYER   1   ROW     4   COL     1   RATE     740.000    
 BOUNDARY     47   LAYER   1   ROW     4   COL     2   RATE     740.000    
 BOUNDARY     48   LAYER   1   ROW     4   COL     3   RATE     740.000    
 BOUNDARY     49   LAYER   1   ROW     4   COL     4   RATE     740.000    
 BOUNDARY     50   LAYER   1   ROW     4   COL     5   RATE     740.000    
 BOUNDARY     51   LAYER   1   ROW     4   COL     6   RATE     740.000    
 BOUNDARY     52   LAYER   1   ROW     4   COL     7   RATE     740.000    
 BOUNDARY     53   LAYER   1   ROW     4   COL     8   RATE     740.000    
 BOUNDARY     54   LAYER   1   ROW     4   COL     9   RATE     740.000    
 BOUNDARY     55   LAYER   1   ROW     4   COL    10   RATE     740.000    
 BOUNDARY     56   LAYER   1   ROW     4   COL    11   RATE     740.000    
 BOUNDARY     57   LAYER   1   ROW     4   COL    12   RATE     740.000    
 BOUNDARY     58   LAYER   1   ROW     4   COL    13   RATE     740.000    
 BOUNDARY     59   LAYER   1   ROW     4   COL    14   RATE     740.000    
 BOUNDARY     60   LAYER   1   ROW     4   COL    15   RATE     740.000    
 BOUNDARY     61   LAYER   1   ROW     5   COL     1   RATE     740.000    
 BOUNDARY     62   LAYER   1   ROW     5   COL     2   RATE     740.000    
 BOUNDARY     63   LAYER   1   ROW     5   COL     3   RATE     740.000    
 BOUNDARY     64   LAYER   1   ROW     5   COL     4   RATE     740.000    
 BOUNDARY     65   LAYER   1   ROW     5   COL     5   RATE     740.000    
 BOUNDARY     66   LAYER   1   ROW     5   COL     6   RATE     740.000    
 BOUNDARY     67   LAYER   1   ROW     5   COL     7   RATE     740.000    
 BOUNDARY     68   LAYER   1   ROW     5   COL     8   RATE     740.000    
 BOUNDARY     69   LAYER   1   ROW     5   COL     9   RATE     740.000    
 BOUNDARY     70   LAYER   1   ROW     5   COL    10   RATE     740.000    
 BOUNDARY     71   LAYER   1   ROW     5   COL    11   RATE     740.000    
 BOUNDARY     72   LAYER   1   ROW     5   COL    12   RATE     740.000    
 BOUNDARY     73   LAYER   1   ROW     5   COL    13   RATE     740.000    
 BOUNDARY     74   LAYER   1   ROW     5   COL    14   RATE     740.000    
 BOUNDARY     75   LAYER   1   ROW     5   COL    15   RATE     740.000    
 BOUNDARY     76   LAYER   1   ROW     6   COL     1   RATE     740.000    
 BOUNDARY     77   LAYER   1   ROW     6   COL     2   RATE     740.000    
 BOUNDARY     78   LAYER   1   ROW     6   COL     3   RATE     740.000    
 BOUNDARY     79   LAYER   1   ROW     6   COL     4   RATE     740.000    
 BOUNDARY     80   LAYER   1   ROW     6   COL     5   RATE     740.000    
 BOUNDARY     81   LAYER   1   ROW     6   COL     6   RATE     740.000    
 BOUNDARY     82   LAYER   1   ROW     6   COL     7   RATE     740.000    
 BOUNDARY     83   LAYER   1   ROW     6   COL     8   RATE     740.000    
 BOUNDARY     84   LAYER   1   ROW     6   COL     9   RATE     740.000    
 BOUNDARY     85   LAYER   1   ROW     6   COL    10   RATE     740.000    
 BOUNDARY     86   LAYER   1   ROW     6   COL    11   RATE     740.000    
 BOUNDARY     87   LAYER   1   ROW     6   COL    12   RATE     740.000    
 BOUNDARY     88   LAYER   1   ROW     6   COL    13   RATE     740.000    
 BOUNDARY     89   LAYER   1   ROW     6   COL    14   RATE     740.000    
 BOUNDARY     90   LAYER   1   ROW     6   COL    15   RATE     740.000    
 BOUNDARY     91   LAYER   1   ROW     7   COL     1   RATE     740.000    
 BOUNDARY     92   LAYER   1   ROW     7   COL     2   RATE     740.000    
 BOUNDARY     93   LAYER   1   ROW     7   COL     3   RATE     740.000    
 BOUNDARY     94   LAYER   1   ROW     7   COL     4   RATE     740.000    
 BOUNDARY     95   LAYER   1   ROW     7   COL     5   RATE     740.000    
 BOUNDARY     96   LAYER   1   ROW     7   COL     6   RATE     740.000    
 BOUNDARY     97   LAYER   1   ROW     7   COL     7   RATE     740.000    
 BOUNDARY     98   LAYER   1   ROW     7   COL     8   RATE     740.000    
 BOUNDARY     99   LAYER   1   ROW     7   COL     9   RATE     740.000    
 BOUNDARY    100   LAYER   1   ROW     7   COL    10   RATE     740.000    
 BOUNDARY    101   LAYER   1   ROW     7   COL    11   RATE     740.000    
 BOUNDARY    102   LAYER   1   ROW     7   COL    12   RATE     740.000    
 BOUNDARY    103   LAYER   1   ROW     7   COL    13   RATE     740.000    
 BOUNDARY    104   LAYER   1   ROW     7   COL    14   RATE     740.000    
 BOUNDARY    105   LAYER   1   ROW     7   COL    15   RATE     740.000    
 BOUNDARY    106   LAYER   1   ROW     8   COL     1   RATE     740.000    
 BOUNDARY    107   LAYER   1   ROW     8   COL     2   RATE     740.000    
 BOUNDARY    108   LAYER   1   ROW     8   COL     3   RATE     740.000    
 BOUNDARY    109   LAYER   1   ROW     8   COL     4   RATE     740.000    
 BOUNDARY    110   LAYER   1   ROW     8   COL     5   RATE     740.000    
 BOUNDARY    111   LAYER   1   ROW     8   COL     6   RATE     740.000    
 BOUNDARY    112   LAYER   1   ROW     8   COL     7   RATE     740.000    
 BOUNDARY    113   LAYER   1   ROW     8   COL     8   RATE     740.000    
 BOUNDARY    114   LAYER   1   ROW     8   COL     9   RATE     740.000    
 BOUNDARY    115   LAYER   1   ROW     8   COL    10   RATE     740.000    
 BOUNDARY    116   LAYER   1   ROW     8   COL    11   RATE     740.000    
 BOUNDARY    117   LAYER   1   ROW     8   COL    12   RATE     740.000    
 BOUNDARY    118   LAYER   1   ROW     8   COL    13   RATE     740.000    
 BOUNDARY    119   LAYER   1   ROW     8   COL    14   RATE     740.000    
 BOUNDARY    120   LAYER   1   ROW     8   COL    15   RATE     740.000    
 BOUNDARY    121   LAYER   1   ROW     9   COL     1   RATE     740.000    
 BOUNDARY    122   LAYER   1   ROW     9   COL     2   RATE     740.000    
 BOUNDARY    123   LAYER   1   ROW     9   COL     3   RATE     740.000    
 BOUNDARY    124   LAYER   1   ROW     9   COL     4   RATE     740.000    
 BOUNDARY    125   LAYER   1   ROW     9   COL     5   RATE     740.000    
 BOUNDARY    126   LAYER   1   ROW     9   COL     6   RATE     740.000    
 BOUNDARY    127   LAYER   1   ROW     9   COL     7   RATE     740.000    
 BOUNDARY    128   LAYER   1   ROW     9   COL     8   RATE     740.000    
 BOUNDARY    129   LAYER   1   ROW     9   COL     9   RATE     740.000    
 BOUNDARY    130   LAYER   1   ROW     9   COL    10   RATE     740.000    
 BOUNDARY    131   LAYER   1   ROW     9   COL    11   RATE     740.000    
 BOUNDARY    132   LAYER   1   ROW     9   COL    12   RATE     740.000    
 BOUNDARY    133   LAYER   1   ROW     9   COL    13   RATE     740.000    
 BOUNDARY    134   LAYER   1   ROW     9   COL    14   RATE     740.000    
 BOUNDARY    135   LAYER   1   ROW     9   COL    15   RATE     740.000    
 BOUNDARY    136   LAYER   1   ROW    10   COL     1   RATE     740.000    
 BOUNDARY    137   LAYER   1   ROW    10   COL     2   RATE     740.000    
 BOUNDARY    138   LAYER   1   ROW    10   COL     3   RATE     740.000    
 BOUNDARY    139   LAYER   1   ROW    10   COL     4   RATE     740.000    
 BOUNDARY    140   LAYER   1   ROW    10   COL     5   RATE     740.000    
 BOUNDARY    141   LAYER   1   ROW    10   COL     6   RATE     740.000    
 BOUNDARY    142   LAYER   1   ROW    10   COL     7   RATE     740.000    
 BOUNDARY    143   LAYER   1   ROW    10   COL     8   RATE     740.000    
 BOUNDARY    144   LAYER   1   ROW    10   COL     9   RATE     740.000    
 BOUNDARY    145   LAYER   1   ROW    10   COL    10   RATE     740.000    
 BOUNDARY    146   LAYER   1   ROW    10   COL    11   RATE     740.000    
 BOUNDARY    147   LAYER   1   ROW    10   COL    12   RATE     740.000    
 BOUNDARY    148   LAYER   1   ROW    10   COL    13   RATE     740.000    
 BOUNDARY    149   LAYER   1   ROW    10   COL    14   RATE     740.000    
 BOUNDARY    150   LAYER   1   ROW    10   COL    15   RATE     740.000    
 UBDSV4 SAVING ET SEGS          ON UNIT   1016 AT TIME STEP      4, STRESS PERIOD      5

 ET SEGS            PERIOD  5   STEP  4
 BOUNDARY      1   LAYER   1   ROW     1   COL     1   RATE    -2.83901    
 BOUNDARY      2   LAYER   1   ROW     1   COL     2   RATE    -9.69400    
 BOUNDARY      3   LAYER   1   ROW     1   COL     3   RATE    -61.0131    
 BOUNDARY      4   LAYER   1   ROW     1   COL     4   RATE   -100.0000    
 BOUNDARY      5   LAYER   1   ROW     1   COL     5   RATE   -100.0000    
 BOUNDARY      6   LAYER   1   ROW     1   COL     6   RATE   -100.0000    
 BOUNDARY      7   LAYER   1   ROW     1   COL     7   RATE   -100.0000    
 BOUNDARY      8   LAYER   1   ROW     1   COL     8   RATE   -100.0000    
 BOUNDARY      9   LAYER   1   ROW     1   COL     9   RATE   -100.0000    
 BOUNDARY     10   LAYER   1   ROW     1   COL    10   RATE   -100.0000    
 BOUNDARY     11   LAYER   1   ROW     1   COL    11   RATE   -100.0000    
 BOUNDARY     12   LAYER   1   ROW     1   COL    12   RATE    -19.1876    
 BOUNDARY     13   LAYER   1   ROW     1   COL    13   RATE     0.00000    
 BOUNDARY     14   LAYER   1   ROW     1   COL    14   RATE     0.00000    
 BOUNDARY     15   LAYER   1   ROW     1   COL    15   RATE     0.00000    
 BOUNDARY     16   LAYER   1   ROW     2   COL     1   RATE     0.00000    
 BOUNDARY     17   LAYER   1   ROW     2   COL     2   RATE    -5.16287    
 BOUNDARY     18   LAYER   1   ROW     2   COL     3   RATE    -32.8374    
 BOUNDARY     19   LAYER   1   ROW     2   COL     4   RATE   -100.0000    
 BOUNDARY     20   LAYER   1   ROW     2   COL     5   RATE   -100.0000    
 BOUNDARY     21   LAYER   1   ROW     2   COL     6   RATE   -100.0000    
 BOUNDARY     22   LAYER   1   ROW     2   COL     7   RATE   -100.0000    
 BOUNDARY     23   LAYER   1   ROW     2   COL     8   RATE   -100.0000    
 BOUNDARY     24   LAYER   1   ROW     2   COL     9   RATE   -100.0000    
 BOUNDARY     25   LAYER   1   ROW     2   COL    10   RATE   -100.0000    
 BOUNDARY     26   LAYER   1   ROW     2   COL    11   RATE   -100.0000    
 BOUNDARY     27   LAYER   1   ROW     2   COL    12   RATE    -20.9295    
 BOUNDARY     28   LAYER   1   ROW     2   COL    13   RATE   -0.829228    
 BOUNDARY     29   LAYER   1   ROW     2   COL    14   RATE     0.00000    
 BOUNDARY     30   LAYER   1   ROW     2   COL    15   RATE     0.00000    
 BOUNDARY     31   LAYER   1   ROW     3   COL     1   RATE     0.00000    
 BOUNDARY     32   LAYER   1   ROW     3   COL     2   RATE     0.00000    
 BOUNDARY     33   LAYER   1   ROW     3   COL     3   RATE    -24.5667    
 BOUNDARY     34   LAYER   1   ROW     3   COL     4   RATE   -100.0000    
 BOUNDARY     35   LAYER   1   ROW     3   COL     5   RATE   -100.0000    
 BOUNDARY     36   LAYER   1   ROW     3   COL     6   RATE   -100.0000    
 BOUNDARY     37   LAYER   1   ROW     3   COL     7   RATE   -100.0000    
 BOUNDARY     38   LAYER   1   ROW     3   COL     8   RATE   -100.0000    
 BOUNDARY     39   LAYER   1   ROW     3   COL     9   RATE   -100.0000    
 BOUNDARY     40   LAYER   1   ROW     3   COL    10   RATE   -100.0000    
 BOUNDARY     41   LAYER   1   ROW     3   COL    11   RATE   -100.0000    
 BOUNDARY     42   LAYER   1   ROW     3   COL    12   RATE    -23.8658    
 BOUNDARY     43   LAYER   1   ROW     3   COL    13   RATE    -2.62337    
 BOUNDARY     44   LAYER   1   ROW     3   COL    14   RATE     0.00000    
 BOUNDARY     45   LAYER   1   ROW     3   COL    15   RATE     0.00000    
 BOUNDARY     46   LAYER   1   ROW     4   COL     1   RATE     0.00000    
 BOUNDARY     47   LAYER   1   ROW     4   COL     2   RATE    -3.65579    
 BOUNDARY     48   LAYER   1   ROW     4   COL     3   RATE    -28.4654    
 BOUNDARY     49   LAYER   1   ROW     4   COL     4   RATE   -100.0000    
 BOUNDARY     50   LAYER   1   ROW     4   COL     5   RATE   -100.0000    
 BOUNDARY     51   LAYER   1   ROW     4   COL     6   RATE   -100.0000    
 BOUNDARY     52   LAYER   1   ROW     4   COL     7   RATE   -100.0000    
 BOUNDARY     53   LAYER   1   ROW     4   COL     8   RATE   -100.0000    
 BOUNDARY     54   LAYER   1   ROW     4   COL     9   RATE   -100.0000    
 BOUNDARY     55   LAYER   1   ROW     4   COL    10   RATE   -100.0000    
 BOUNDARY     56   LAYER   1   ROW     4   COL    11   RATE   -100.0000    
 BOUNDARY     57   LAYER   1   ROW     4   COL    12   RATE    -26.6524    
 BOUNDARY     58   LAYER   1   ROW     4   COL    13   RATE    -4.07446    
 BOUNDARY     59   LAYER   1   ROW     4   COL    14   RATE     0.00000    
 BOUNDARY     60   LAYER   1   ROW     4   COL    15   RATE     0.00000    
 BOUNDARY     61   LAYER   1   ROW     5   COL     1   RATE     0.00000    
 BOUNDARY     62   LAYER   1   ROW     5   COL     2   RATE    -6.63802    
 BOUNDARY     63   LAYER   1   ROW     5   COL     3   RATE    -42.7621    
 BOUNDARY     64   LAYER   1   ROW     5   COL     4   RATE   -100.0000    
 BOUNDARY     65   LAYER   1   ROW     5   COL     5   RATE   -100.0000    
 BOUNDARY     66   LAYER   1   ROW     5   COL     6   RATE   -100.0000    
 BOUNDARY     67   LAYER   1   ROW     5   COL     7   RATE   -100.0000    
 BOUNDARY     68   LAYER   1   ROW     5   COL     8   RATE   -100.0000    
 BOUNDARY     69   LAYER   1   ROW     5   COL     9   RATE   -100.0000    
 BOUNDARY     70   LAYER   1   ROW     5   COL    10   RATE   -100.0000    
 BOUNDARY     71   LAYER   1   ROW     5   COL    11   RATE   -100.0000    
 BOUNDARY     72   LAYER   1   ROW     5   COL    12   RATE    -28.5665    
 BOUNDARY     73   LAYER   1   ROW     5   COL    13   RATE    -4.95788    
 BOUNDARY     74   LAYER   1   ROW     5   COL    14   RATE     0.00000    
 BOUNDARY     75   LAYER   1   ROW     5   COL    15   RATE     0.00000    
 BOUNDARY     76   LAYER   1   ROW     6   COL     1   RATE     0.00000    
 BOUNDARY     77   LAYER   1   ROW     6   COL     2   RATE    -5.19314    
 BOUNDARY     78   LAYER   1   ROW     6   COL     3   RATE    -46.5393    
 BOUNDARY     79   LAYER   1   ROW     6   COL     4   RATE   -100.0000    
 BOUNDARY     80   LAYER   1   ROW     6   COL     5   RATE   -100.0000    
 BOUNDARY     81   LAYER   1   ROW     6   COL     6   RATE   -100.0000    
 BOUNDARY     82   LAYER   1   ROW     6   COL     7   RATE   -100.0000    
 BOUNDARY     83   LAYER   1   ROW     6   COL     8   RATE   -100.0000    
 BOUNDARY     84   LAYER   1   ROW     6   COL     9   RATE   -100.0000    
 BOUNDARY     85   LAYER   1   ROW     6   COL    10   RATE   -100.0000    
 BOUNDARY     86   LAYER   1   ROW     6   COL    11   RATE   -100.0000    
 BOUNDARY     87   LAYER   1   ROW     6   COL    12   RATE    -29.2090    
 BOUNDARY     88   LAYER   1   ROW     6   COL    13   RATE    -4.90895    
 BOUNDARY     89   LAYER   1   ROW     6   COL    14   RATE     0.00000    
 BOUNDARY     90   LAYER   1   ROW     6   COL    15   RATE     0.00000    
 BOUNDARY     91   LAYER   1   ROW     7   COL     1   RATE     0.00000    
 BOUNDARY     92   LAYER   1   ROW     7   COL     2   RATE    -1.65376    
 BOUNDARY     93   LAYER   1   ROW     7   COL     3   RATE    -53.3393    
 BOUNDARY     94   LAYER   1   ROW     7   COL     4   RATE   -100.0000    
 BOUNDARY     95   LAYER   1   ROW     7   COL     5   RATE   -100.0000    
 BOUNDARY     96   LAYER   1   ROW     7   COL     6   RATE   -100.0000    
 BOUNDARY     97   LAYER   1   ROW     7   COL     7   RATE   -100.0000    
 BOUNDARY     98   LAYER   1   ROW     7   COL     8   RATE   -100.0000    
 BOUNDARY     99   LAYER   1   ROW     7   COL     9   RATE   -100.0000    
 BOUNDARY    100   LAYER   1   ROW     7   COL    10   RATE   -100.0000    
 BOUNDARY    101   LAYER   1   ROW     7   COL    11   RATE   -100.0000    
 BOUNDARY    102   LAYER   1   ROW     7   COL    12   RATE    -29.0631    
 BOUNDARY    103   LAYER   1   ROW     7   COL    13   RATE    -4.19142    
 BOUNDARY    104   LAYER   1   ROW     7   COL    14   RATE     0.00000    
 BOUNDARY    105   LAYER   1   ROW     7   COL    15   RATE     0.00000    
 BOUNDARY    106   LAYER   1   ROW     8   COL     1   RATE     0.00000    
 BOUNDARY    107   LAYER   1   ROW     8   COL     2   RATE    -13.5241    
 BOUNDARY    108   LAYER   1   ROW     8   COL     3   RATE   -100.0000    
 BOUNDARY    109   LAYER   1   ROW     8   COL     4   RATE   -100.0000    
 BOUNDARY    110   LAYER   1   ROW     8   COL     5   RATE   -100.0000    
 BOUNDARY    111   LAYER   1   ROW     8   COL     6   RATE   -100.0000    
 BOUNDARY    112   LAYER   1   ROW     8   COL     7   RATE   -100.0000    
 BOUNDARY    113   LAYER   1   ROW     8   COL     8   RATE   -100.0000    
 BOUNDARY    114   LAYER   1   ROW     8   COL     9   RATE   -100.0000    
 BOUNDARY    115   LAYER   1   ROW     8   COL    10   RATE   -100.0000    
 BOUNDARY    116   LAYER   1   ROW     8   COL    11   RATE   -100.0000    
 BOUNDARY    117   LAYER   1   ROW     8   COL    12   RATE    -29.4803    
 BOUNDARY    118   LAYER   1   ROW     8   COL    13   RATE    -4.22286    
 BOUNDARY    119   LAYER   1   ROW     8   COL    14   RATE     0.00000    
 BOUNDARY    120   LAYER   1   ROW     8   COL    15   RATE     0.00000    
 BOUNDARY    121   LAYER   1   ROW     9   COL     1   RATE    -21.1244    
 BOUNDARY    122   LAYER   1   ROW     9   COL     2   RATE    -72.5665    
 BOUNDARY    123   LAYER   1   ROW     9   COL     3   RATE   -100.0000    
 BOUNDARY    124   LAYER   1   ROW     9   COL     4   RATE   -100.0000    
 BOUNDARY    125   LAYER   1   ROW     9   COL     5   RATE   -100.0000    
 BOUNDARY    126   LAYER   1   ROW     9   COL     6   RATE   -100.0000    
 BOUNDARY    127   LAYER   1   ROW     9   COL     7   RATE   -100.0000    
 BOUNDARY    128   LAYER   1   ROW     9   COL     8   RATE   -100.0000    
 BOUNDARY    129   LAYER   1   ROW     9   COL     9   RATE   -100.0000    
 BOUNDARY    130   LAYER   1   ROW     9   COL    10   RATE   -100.0000    
 BOUNDARY    131   LAYER   1   ROW     9   COL    11   RATE   -100.0000    
 BOUNDARY    132   LAYER   1   ROW     9   COL    12   RATE    -33.2102    
 BOUNDARY    133   LAYER   1   ROW     9   COL    13   RATE    -5.08173    
 BOUNDARY    134   LAYER   1   ROW     9   COL    14   RATE     0.00000    
 BOUNDARY    135   LAYER   1   ROW     9   COL    15   RATE     0.00000    
 BOUNDARY    136   LAYER   1   ROW    10   COL     1   RATE    -80.7527    
 BOUNDARY    137   LAYER   1   ROW    10   COL     2   RATE   -100.0000    
 BOUNDARY    138   LAYER   1   ROW    10   COL     3   RATE   -100.0000    
 BOUNDARY    139   LAYER   1   ROW    10   COL     4   RATE   -100.0000    
 BOUNDARY    140   LAYER   1   ROW    10   COL     5   RATE   -100.0000    
 BOUNDARY    141   LAYER   1   ROW    10   COL     6   RATE   -100.0000    
 BOUNDARY    142   LAYER   1   ROW    10   COL     7   RATE   -100.0000    
 BOUNDARY    143   LAYER   1   ROW    10   COL     8   RATE   -100.0000    
 BOUNDARY    144   LAYER   1   ROW    10   COL     9   RATE   -100.0000    
 BOUNDARY    145   LAYER   1   ROW    10   COL    10   RATE   -100.0000    
 BOUNDARY    146   LAYER   1   ROW    10   COL    11   RATE   -100.0000    
 BOUNDARY    147   LAYER   1   ROW    10   COL    12   RATE    -37.4391    
 BOUNDARY    148   LAYER   1   ROW    10   COL    13   RATE    -5.62884    
 BOUNDARY    149   LAYER   1   ROW    10   COL    14   RATE     0.00000    
 BOUNDARY    150   LAYER   1   ROW    10   COL    15   RATE     0.00000    

 HEAD WILL BE SAVED ON UNIT 1017 AT END OF TIME STEP    4, STRESS PERIOD    5
WEL   no.    1 value from time series:   0.0000     for time:  95.00     to  96.00    
WEL   no.    2 value from time series:   0.0000     for time:  95.00     to  96.00    
RIV   no.    1 value from time series:   101.00     for time:  95.00     to  96.00    
RIV   no.    2 value from time series:   101.00     for time:  95.00     to  96.00    
RIV   no.    3 value from time series:   111.50     for time:  95.00     to  96.00    
RIV   no.    4 value from time series:   111.50     for time:  95.00     to  96.00    
RIV   no.    5 value from time series:   115.10     for time:  95.00     to  96.00    
RIV   no.    6 value from time series:   115.10     for time:  95.00     to  96.00    
RIV   no.    7 value from time series:   104.00     for time:  95.00     to  96.00    
RIV   no.    8 value from time series:   104.00     for time:  95.00     to  96.00    
RIV   no.    9 value from time series:   113.50     for time:  95.00     to  96.00    
RIV   no.   10 value from time series:   113.50     for time:  95.00     to  96.00    
WEL   no.    1 value from time series:   0.0000     for time:  95.00     to  96.00    
WEL   no.    2 value from time series:   0.0000     for time:  95.00     to  96.00    
RIV   no.    1 value from time series:   101.00     for time:  95.00     to  96.00    
RIV   no.    2 value from time series:   101.00     for time:  95.00     to  96.00    
RIV   no.    3 value from time series:   111.50     for time:  95.00     to  96.00    
RIV   no.    4 value from time series:   111.50     for time:  95.00     to  96.00    
RIV   no.    5 value from time series:   115.10     for time:  95.00     to  96.00    
RIV   no.    6 value from time series:   115.10     for time:  95.00     to  96.00    
RIV   no.    7 value from time series:   104.00     for time:  95.00     to  96.00    
RIV   no.    8 value from time series:   104.00     for time:  95.00     to  96.00    
RIV   no.    9 value from time series:   113.50     for time:  95.00     to  96.00    
RIV   no.   10 value from time series:   113.50     for time:  95.00     to  96.00    

 OUTPUT CONTROL FOR STRESS PERIOD    5   TIME STEP    5
    SAVE BUDGET
    SAVE HEAD
    SAVE HEAD FOR ALL LAYERS
 UBDSV1 SAVING          STORAGE ON UNIT   1016 AT TIME STEP      5, STRESS PERIOD      5
 UBDSV1 SAVING FLOW RIGHT FACE  ON UNIT   1016 AT TIME STEP      5, STRESS PERIOD      5
 UBDSV1 SAVING FLOW FRONT FACE  ON UNIT   1016 AT TIME STEP      5, STRESS PERIOD      5
 UBDSV1 SAVING FLOW LOWER FACE  ON UNIT   1016 AT TIME STEP      5, STRESS PERIOD      5
 UBDSV4 SAVING WELLS NEAR RIVER ON UNIT   1016 AT TIME STEP      5, STRESS PERIOD      5

 WELLS NEAR RIVER   PERIOD  5   STEP  5
 BOUNDARY      1   LAYER   2   ROW     8   COL     4   RATE     0.00000      WELL_2
 BOUNDARY      2   LAYER   2   ROW     3   COL     4   RATE     0.00000      WELL_1
 UBDSV4 SAVING RIVER            ON UNIT   1016 AT TIME STEP      5, STRESS PERIOD      5

 RIVER              PERIOD  5   STEP  5
 BOUNDARY      1   LAYER   1   ROW     1   COL    15   RATE    -4885.23    
 BOUNDARY      2   LAYER   1   ROW     2   COL    15   RATE    -6009.44      RIV2
 BOUNDARY      3   LAYER   1   ROW     3   COL    15   RATE    -2275.45      RIV3
 BOUNDARY      4   LAYER   1   ROW     4   COL    15   RATE    -3738.76    
 BOUNDARY      5   LAYER   1   ROW     5   COL    15   RATE    -2376.91    
 BOUNDARY      6   LAYER   1   ROW     6   COL    15   RATE    -1724.75    
 BOUNDARY      7   LAYER   1   ROW     7   COL    15   RATE    -6206.79      RIVX
 BOUNDARY      8   LAYER   1   ROW     8   COL    15   RATE    -6054.68      RIVX
 BOUNDARY      9   LAYER   1   ROW     9   COL    15   RATE    -2264.21      RIVX
 BOUNDARY     10   LAYER   1   ROW    10   COL    15   RATE    -3168.85    

 GHB LAKES          PERIOD  5   STEP  5
 BOUNDARY      1   LAYER   1   ROW     3   COL     1   RATE    -14729.3    
 BOUNDARY      2   LAYER   1   ROW     7   COL     1   RATE    -2046.26      GHB2_UPPER
 BOUNDARY      3   LAYER   1   ROW     7   COL     1   RATE    -13308.6      GHB2_LOWER
 UBDSV4 SAVING RECHARGE         ON UNIT   1016 AT TIME STEP      5, STRESS PERIOD      5

 RECHARGE           PERIOD  5   STEP  5
 BOUNDARY      1   LAYER   1   ROW     1   COL     1   RATE     743.333    
 BOUNDARY      2   LAYER   1   ROW     1   COL     2   RATE     743.333    
 BOUNDARY      3   LAYER   1   ROW     1   COL     3   RATE     743.333    
 BOUNDARY      4   LAYER   1   ROW     1   COL     4   RATE     743.333    
 BOUNDARY      5   LAYER   1   ROW     1   COL     5   RATE     743.333    
 BOUNDARY      6   LAYER   1   ROW     1   COL     6   RATE     743.333    
 BOUNDARY      7   LAYER   1   ROW     1   COL     7   RATE     743.333    
 BOUNDARY      8   LAYER   1   ROW     1   COL     8   RATE     743.333    
 BOUNDARY      9   LAYER   1   ROW     1   COL     9   RATE     743.333    
 BOUNDARY     10   LAYER   1   ROW     1   COL    10   RATE     743.333    
 BOUNDARY     11   LAYER   1   ROW     1   COL    11   RATE     743.333    
 BOUNDARY     12   LAYER   1   ROW     1   COL    12   RATE     743.333    
 BOUNDARY     13   LAYER   1   ROW     1   COL    13   RATE     743.333    
 BOUNDARY     14   LAYER   1   ROW     1   COL    14   RATE     743.333    
 BOUNDARY     15   LAYER   1   ROW     1   COL    15   RATE     743.333    
 BOUNDARY     16   LAYER   1   ROW     2   COL     1   RATE     743.333    
 BOUNDARY     17   LAYER   1   ROW     2   COL     2   RATE     743.333    
 BOUNDARY     18   LAYER   1   ROW     2   COL     3   RATE     743.333    
 BOUNDARY     19   LAYER   1   ROW     2   COL     4   RATE     743.333    
 BOUNDARY     20   LAYER   1   ROW     2   COL     5   RATE     743.333    
 BOUNDARY     21   LAYER   1   ROW     2   COL     6   RATE     743.333    
 BOUNDARY     22   LAYER   1   ROW     2   COL     7   RATE     743.333    
 BOUNDARY     23   LAYER   1   ROW     2   COL     8   RATE     743.333    
 BOUNDARY     24   LAYER   1   ROW     2   COL     9   RATE     743.333    
 BOUNDARY     25   LAYER   1   ROW     2   COL    10   RATE     743.333    
 BOUNDARY     26   LAYER   1   ROW     2   COL    11   RATE     743.333    
 BOUNDARY     27   LAYER   1   ROW     2   COL    12   RATE     743.333    
 BOUNDARY     28   LAYER   1   ROW     2   COL    13   RATE     743.333    
 BOUNDARY     29   LAYER   1   ROW     2   COL    14   RATE     743.333    
 BOUNDARY     30   LAYER   1   ROW     2   COL    15   RATE     743.333    
 BOUNDARY     31   LAYER   1   ROW     3   COL     1   RATE     743.333    
 BOUNDARY     32   LAYER   1   ROW     3   COL     2   RATE     743.333    
 BOUNDARY     33   LAYER   1   ROW     3   COL     3   RATE     743.333    
 BOUNDARY     34   LAYER   1   ROW     3   COL     4   RATE     743.333    
 BOUNDARY     35   LAYER   1   ROW     3   COL     5   RATE     743.333    
 BOUNDARY     36   LAYER   1   ROW     3   COL     6   RATE     743.333    
 BOUNDARY     37   LAYER   1   ROW     3   COL     7   RATE     743.333    
 BOUNDARY     38   LAYER   1   ROW     3   COL     8   RATE     743.333    
 BOUNDARY     39   LAYER   1   ROW     3   COL     9   RATE     743.333    
 BOUNDARY     40   LAYER   1   ROW     3   COL    10   RATE     743.333    
 BOUNDARY     41   LAYER   1   ROW     3   COL    11   RATE     743.333    
 BOUNDARY     42   LAYER   1   ROW     3   COL    12   RATE     743.333    
 BOUNDARY     43   LAYER   1   ROW     3   COL    13   RATE     743.333    
 BOUNDARY     44   LAYER   1   ROW     3   COL    14   RATE     743.333    
 BOUNDARY     45   LAYER   1   ROW     3   COL    15   RATE     743.333    
 BOUNDARY     46   LAYER   1   ROW     4   COL     1   RATE     743.333    
 BOUNDARY     47   LAYER   1   ROW     4   COL     2   RATE     743.333    
 BOUNDARY     48   LAYER   1   ROW     4   COL     3   RATE     743.333    
 BOUNDARY     49   LAYER   1   ROW     4   COL     4   RATE     743.333    
 BOUNDARY     50   LAYER   1   ROW     4   COL     5   RATE     743.333    
 BOUNDARY     51   LAYER   1   ROW     4   COL     6   RATE     743.333    
 BOUNDARY     52   LAYER   1   ROW     4   COL     7   RATE     743.333    
 BOUNDARY     53   LAYER   1   ROW     4   COL     8   RATE     743.333    
 BOUNDARY     54   LAYER   1   ROW     4   COL     9   RATE     743.333    
 BOUNDARY     55   LAYER   1   ROW     4   COL    10   RATE     743.333    
 BOUNDARY     56   LAYER   1   ROW     4   COL    11   RATE     743.333    
 BOUNDARY     57   LAYER   1   ROW     4   COL    12   RATE     743.333    
 BOUNDARY     58   LAYER   1   ROW     4   COL    13   RATE     743.333    
 BOUNDARY     59   LAYER   1   ROW     4   COL    14   RATE     743.333    
 BOUNDARY     60   LAYER   1   ROW     4   COL    15   RATE     743.333    
 BOUNDARY     61   LAYER   1   ROW     5   COL     1   RATE     743.333    
 BOUNDARY     62   LAYER   1   ROW     5   COL     2   RATE     743.333    
 BOUNDARY     63   LAYER   1   ROW     5   COL     3   RATE     743.333    
 BOUNDARY     64   LAYER   1   ROW     5   COL     4   RATE     743.333    
 BOUNDARY     65   LAYER   1   ROW     5   COL     5   RATE     743.333    
 BOUNDARY     66   LAYER   1   ROW     5   COL     6   RATE     743.333    
 BOUNDARY     67   LAYER   1   ROW     5   COL     7   RATE     743.333    
 BOUNDARY     68   LAYER   1   ROW     5   COL     8   RATE     743.333    
 BOUNDARY     69   LAYER   1   ROW     5   COL     9   RATE     743.333    
 BOUNDARY     70   LAYER   1   ROW     5   COL    10   RATE     743.333    
 BOUNDARY     71   LAYER   1   ROW     5   COL    11   RATE     743.333    
 BOUNDARY     72   LAYER   1   ROW     5   COL    12   RATE     743.333    
 BOUNDARY     73   LAYER   1   ROW     5   COL    13   RATE     743.333    
 BOUNDARY     74   LAYER   1   ROW     5   COL    14   RATE     743.333    
 BOUNDARY     75   LAYER   1   ROW     5   COL    15   RATE     743.333    
 BOUNDARY     76   LAYER   1   ROW     6   COL     1   RATE     743.333    
 BOUNDARY     77   LAYER   1   ROW     6   COL     2   RATE     743.333    
 BOUNDARY     78   LAYER   1   ROW     6   COL     3   RATE     743.333    
 BOUNDARY     79   LAYER   1   ROW     6   COL     4   RATE     743.333    
 BOUNDARY     80   LAYER   1   ROW     6   COL     5   RATE     743.333    
 BOUNDARY     81   LAYER   1   ROW     6   COL     6   RATE     743.333    
 BOUNDARY     82   LAYER   1   ROW     6   COL     7   RATE     743.333    
 BOUNDARY     83   LAYER   1   ROW     6   COL     8   RATE     743.333    
 BOUNDARY     84   LAYER   1   ROW     6   COL     9   RATE     743.333    
 BOUNDARY     85   LAYER   1   ROW     6   COL    10   RATE     743.333    
 BOUNDARY     86   LAYER   1   ROW     6   COL    11   RATE     743.333    
 BOUNDARY     87   LAYER   1   ROW     6   COL    12   RATE     743.333    
 BOUNDARY     88   LAYER   1   ROW     6   COL    13   RATE     743.333    
 BOUNDARY     89   LAYER   1   ROW     6   COL    14   RATE     743.333    
 BOUNDARY     90   LAYER   1   ROW     6   COL    15   RATE     743.333    
 BOUNDARY     91   LAYER   1   ROW     7   COL     1   RATE     743.333    
 BOUNDARY     92   LAYER   1   ROW     7   COL     2   RATE     743.333    
 BOUNDARY     93   LAYER   1   ROW     7   COL     3   RATE     743.333    
 BOUNDARY     94   LAYER   1   ROW     7   COL     4   RATE     743.333    
 BOUNDARY     95   LAYER   1   ROW     7   COL     5   RATE     743.333    
 BOUNDARY     96   LAYER   1   ROW     7   COL     6   RATE     743.333    
 BOUNDARY     97   LAYER   1   ROW     7   COL     7   RATE     743.333    
 BOUNDARY     98   LAYER   1   ROW     7   COL     8   RATE     743.333    
 BOUNDARY     99   LAYER   1   ROW     7   COL     9   RATE     743.333    
 BOUNDARY    100   LAYER   1   ROW     7   COL    10   RATE     743.333    
 BOUNDARY    101   LAYER   1   ROW     7   COL    11   RATE     743.333    
 BOUNDARY    102   LAYER   1   ROW     7   COL    12   RATE     743.333    
 BOUNDARY    103   LAYER   1   ROW     7   COL    13   RATE     743.333    
 BOUNDARY    104   LAYER   1   ROW     7   COL    14   RATE     743.333    
 BOUNDARY    105   LAYER   1   ROW     7   COL    15   RATE     743.333    
 BOUNDARY    106   LAYER   1   ROW     8   COL     1   RATE     743.333    
 BOUNDARY    107   LAYER   1   ROW     8   COL     2   RATE     743.333    
 BOUNDARY    108   LAYER   1   ROW     8   COL     3   RATE     743.333    
 BOUNDARY    109   LAYER   1   ROW     8   COL     4   RATE     743.333    
 BOUNDARY    110   LAYER   1   ROW     8   COL     5   RATE     743.333    
 BOUNDARY    111   LAYER   1   ROW     8   COL     6   RATE     743.333    
 BOUNDARY    112   LAYER   1   ROW     8   COL     7   RATE     743.333    
 BOUNDARY    113   LAYER   1   ROW     8   COL     8   RATE     743.333    
 BOUNDARY    114   LAYER   1   ROW     8   COL     9   RATE     743.333    
 BOUNDARY    115   LAYER   1   ROW     8   COL    10   RATE     743.333    
 BOUNDARY    116   LAYER   1   ROW     8   COL    11   RATE     743.333    
 BOUNDARY    117   LAYER   1   ROW     8   COL    12   RATE     743.333    
 BOUNDARY    118   LAYER   1   ROW     8   COL    13   RATE     743.333    
 BOUNDARY    119   LAYER   1   ROW     8   COL    14   RATE     743.333    
 BOUNDARY    120   LAYER   1   ROW     8   COL    15   RATE     743.333    
 BOUNDARY    121   LAYER   1   ROW     9   COL     1   RATE     743.333    
 BOUNDARY    122   LAYER   1   ROW     9   COL     2   RATE     743.333    
 BOUNDARY    123   LAYER   1   ROW     9   COL     3   RATE     743.333    
 BOUNDARY    124   LAYER   1   ROW     9   COL     4   RATE     743.333    
 BOUNDARY    125   LAYER   1   ROW     9   COL     5   RATE     743.333    
 BOUNDARY    126   LAYER   1   ROW     9   COL     6   RATE     743.333    
 BOUNDARY    127   LAYER   1   ROW     9   COL     7   RATE     743.333    
 BOUNDARY    128   LAYER   1   ROW     9   COL     8   RATE     743.333    
 BOUNDARY    129   LAYER   1   ROW     9   COL     9   RATE     743.333    
 BOUNDARY    130   LAYER   1   ROW     9   COL    10   RATE     743.333    
 BOUNDARY    131   LAYER   1   ROW     9   COL    11   RATE     743.333    
 BOUNDARY    132   LAYER   1   ROW     9   COL    12   RATE     743.333    
 BOUNDARY    133   LAYER   1   ROW     9   COL    13   RATE     743.333    
 BOUNDARY    134   LAYER   1   ROW     9   COL    14   RATE     743.333    
 BOUNDARY    135   LAYER   1   ROW     9   COL    15   RATE     743.333    
 BOUNDARY    136   LAYER   1   ROW    10   COL     1   RATE     743.333    
 BOUNDARY    137   LAYER   1   ROW    10   COL     2   RATE     743.333    
 BOUNDARY    138   LAYER   1   ROW    10   COL     3   RATE     743.333    
 BOUNDARY    139   LAYER   1   ROW    10   COL     4   RATE     743.333    
 BOUNDARY    140   LAYER   1   ROW    10   COL     5   RATE     743.333    
 BOUNDARY    141   LAYER   1   ROW    10   COL     6   RATE     743.333    
 BOUNDARY    142   LAYER   1   ROW    10   COL     7   RATE     743.333    
 BOUNDARY    143   LAYER   1   ROW    10   COL     8   RATE     743.333    
 BOUNDARY    144   LAYER   1   ROW    10   COL     9   RATE     743.333    
 BOUNDARY    145   LAYER   1   ROW    10   COL    10   RATE     743.333    
 BOUNDARY    146   LAYER   1   ROW    10   COL    11   RATE     743.333    
 BOUNDARY    147   LAYER   1   ROW    10   COL    12   RATE     743.333    
 BOUNDARY    148   LAYER   1   ROW    10   COL    13   RATE     743.333    
 BOUNDARY    149   LAYER   1   ROW    10   COL    14   RATE     743.333    
 BOUNDARY    150   LAYER   1   ROW    10   COL    15   RATE     743.333    
 UBDSV4 SAVING ET SEGS          ON UNIT   1016 AT TIME STEP      5, STRESS PERIOD      5

 ET SEGS            PERIOD  5   STEP  5
 BOUNDARY      1   LAYER   1   ROW     1   COL     1   RATE    -2.85735    
 BOUNDARY      2   LAYER   1   ROW     1   COL     2   RATE    -9.71258    
 BOUNDARY      3   LAYER   1   ROW     1   COL     3   RATE    -61.3378    
 BOUNDARY      4   LAYER   1   ROW     1   COL     4   RATE   -100.0000    
 BOUNDARY      5   LAYER   1   ROW     1   COL     5   RATE   -100.0000    
 BOUNDARY      6   LAYER   1   ROW     1   COL     6   RATE   -100.0000    
 BOUNDARY      7   LAYER   1   ROW     1   COL     7   RATE   -100.0000    
 BOUNDARY      8   LAYER   1   ROW     1   COL     8   RATE   -100.0000    
 BOUNDARY      9   LAYER   1   ROW     1   COL     9   RATE   -100.0000    
 BOUNDARY     10   LAYER   1   ROW     1   COL    10   RATE   -100.0000    
 BOUNDARY     11   LAYER   1   ROW     1   COL    11   RATE   -100.0000    
 BOUNDARY     12   LAYER   1   ROW     1   COL    12   RATE    -19.2510    
 BOUNDARY     13   LAYER   1   ROW     1   COL    13   RATE     0.00000    
 BOUNDARY     14   LAYER   1   ROW     1   COL    14   RATE     0.00000    
 BOUNDARY     15   LAYER   1   ROW     1   COL    15   RATE     0.00000    
 BOUNDARY     16   LAYER   1   ROW     2   COL     1   RATE     0.00000    
 BOUNDARY     17   LAYER   1   ROW     2   COL     2   RATE    -5.18119    
 BOUNDARY     18   LAYER   1   ROW     2   COL     3   RATE    -33.1687    
 BOUNDARY     19   LAYER   1   ROW     2   COL     4   RATE   -100.0000    
 BOUNDARY     20   LAYER   1   ROW     2   COL     5   RATE   -100.0000    
 BOUNDARY     21   LAYER   1   ROW     2   COL     6   RATE   -100.0000    
 BOUNDARY     22   LAYER   1   ROW     2   COL     7   RATE   -100.0000    
 BOUNDARY     23   LAYER   1   ROW     2   COL     8   RATE   -100.0000    
 BOUNDARY     24   LAYER   1   ROW     2   COL     9   RATE   -100.0000    
 BOUNDARY     25   LAYER   1   ROW     2   COL    10   RATE   -100.0000    
 BOUNDARY     26   LAYER   1   ROW     2   COL    11   RATE   -100.0000    
 BOUNDARY     27   LAYER   1   ROW     2   COL    12   RATE    -20.9930    
 BOUNDARY     28   LAYER   1   ROW     2   COL    13   RATE   -0.847759    
 BOUNDARY     29   LAYER   1   ROW     2   COL    14   RATE     0.00000    
 BOUNDARY     30   LAYER   1   ROW     2   COL    15   RATE     0.00000    
 BOUNDARY     31   LAYER   1   ROW     3   COL     1   RATE     0.00000    
 BOUNDARY     32   LAYER   1   ROW     3   COL     2   RATE     0.00000    
 BOUNDARY     33   LAYER   1   ROW     3   COL     3   RATE    -24.6288    
 BOUNDARY     34   LAYER   1   ROW     3   COL     4   RATE   -100.0000    
 BOUNDARY     35   LAYER   1   ROW     3   COL     5   RATE   -100.0000    
 BOUNDARY     36   LAYER   1   ROW     3   COL     6   RATE   -100.0000    
 BOUNDARY     37   LAYER   1   ROW     3   COL     7   RATE   -100.0000    
 BOUNDARY     38   LAYER   1   ROW     3   COL     8   RATE   -100.0000    
 BOUNDARY     39   LAYER   1   ROW     3   COL     9   RATE   -100.0000    
 BOUNDARY     40   LAYER   1   ROW     3   COL    10   RATE   -100.0000    
 BOUNDARY     41   LAYER   1   ROW     3   COL    11   RATE   -100.0000    
 BOUNDARY     42   LAYER   1   ROW     3   COL    12   RATE    -23.9293    
 BOUNDARY     43   LAYER   1   ROW     3   COL    13   RATE    -2.64195    
 BOUNDARY     44   LAYER   1   ROW     3   COL    14   RATE     0.00000    
 BOUNDARY     45   LAYER   1   ROW     3   COL    15   RATE     0.00000    
 BOUNDARY     46   LAYER   1   ROW     4   COL     1   RATE     0.00000    
 BOUNDARY     47   LAYER   1   ROW     4   COL     2   RATE    -3.67394    
 BOUNDARY     48   LAYER   1   ROW     4   COL     3   RATE    -28.5275    
 BOUNDARY     49   LAYER   1   ROW     4   COL     4   RATE   -100.0000    
 BOUNDARY     50   LAYER   1   ROW     4   COL     5   RATE   -100.0000    
 BOUNDARY     51   LAYER   1   ROW     4   COL     6   RATE   -100.0000    
 BOUNDARY     52   LAYER   1   ROW     4   COL     7   RATE   -100.0000    
 BOUNDARY     53   LAYER   1   ROW     4   COL     8   RATE   -100.0000    
 BOUNDARY     54   LAYER   1   ROW     4   COL     9   RATE   -100.0000    
 BOUNDARY     55   LAYER   1   ROW     4   COL    10   RATE   -100.0000    
 BOUNDARY     56   LAYER   1   ROW     4   COL    11   RATE   -100.0000    
 BOUNDARY     57   LAYER   1   ROW     4   COL    12   RATE    -26.7157    
 BOUNDARY     58   LAYER   1   ROW     4   COL    13   RATE    -4.09292    
 BOUNDARY     59   LAYER   1   ROW     4   COL    14   RATE     0.00000    
 BOUNDARY     60   LAYER   1   ROW     4   COL    15   RATE     0.00000    
 BOUNDARY     61   LAYER   1   ROW     5   COL     1   RATE     0.00000    
 BOUNDARY     62   LAYER   1   ROW     5   COL     2   RATE    -6.65642    
 BOUNDARY     63   LAYER   1   ROW     5   COL     3   RATE    -43.0835    
 BOUNDARY     64   LAYER   1   ROW     5   COL     4   RATE   -100.0000    
 BOUNDARY     65   LAYER   1   ROW     5   COL     5   RATE   -100.0000    
 BOUNDARY     66   LAYER   1   ROW     5   COL     6   RATE   -100.0000    
 BOUNDARY     67   LAYER   1   ROW     5   COL     7   RATE   -100.0000    
 BOUNDARY     68   LAYER   1   ROW     5   COL     8   RATE   -100.0000    
 BOUNDARY     69   LAYER   1   ROW     5   COL     9   RATE   -100.0000    
 BOUNDARY     70   LAYER   1   ROW     5   COL    10   RATE   -100.0000    
 BOUNDARY     71   LAYER   1   ROW     5   COL    11   RATE   -100.0000    
 BOUNDARY     72   LAYER   1   ROW     5   COL    12   RATE    -28.6294    
 BOUNDARY     73   LAYER   1   ROW     5   COL    13   RATE    -4.97609    
 BOUNDARY     74   LAYER   1   ROW     5   COL    14   RATE     0.00000    
 BOUNDARY     75   LAYER   1   ROW     5   COL    15   RATE     0.00000    
 BOUNDARY     76   LAYER   1   ROW     6   COL     1   RATE     0.00000    
 BOUNDARY     77   LAYER   1   ROW     6   COL     2   RATE    -5.21109    
 BOUNDARY     78   LAYER   1   ROW     6   COL     3   RATE    -46.8582    
 BOUNDARY     79   LAYER   1   ROW     6   COL     4   RATE   -100.0000    
 BOUNDARY     80   LAYER   1   ROW     6   COL     5   RATE   -100.0000    
 BOUNDARY     81   LAYER   1   ROW     6   COL     6   RATE   -100.0000    
 BOUNDARY     82   LAYER   1   ROW     6   COL     7   RATE   -100.0000    
 BOUNDARY     83   LAYER   1   ROW     6   COL     8   RATE   -100.0000    
 BOUNDARY     84   LAYER   1   ROW     6   COL     9   RATE   -100.0000    
 BOUNDARY     85   LAYER   1   ROW     6   COL    10   RATE   -100.0000    
 BOUNDARY     86   LAYER   1   ROW     6   COL    11   RATE   -100.0000    
 BOUNDARY     87   LAYER   1   ROW     6   COL    12   RATE    -29.2718    
 BOUNDARY     88   LAYER   1   ROW     6   COL    13   RATE    -4.92707    
 BOUNDARY     89   LAYER   1   ROW     6   COL    14   RATE     0.00000    
 BOUNDARY     90   LAYER   1   ROW     6   COL    15   RATE     0.00000    
 BOUNDARY     91   LAYER   1   ROW     7   COL     1   RATE     0.00000    
 BOUNDARY     92   LAYER   1   ROW     7   COL     2   RATE    -1.67057    
 BOUNDARY     93   LAYER   1   ROW     7   COL     3   RATE    -53.6562    
 BOUNDARY     94   LAYER   1   ROW     7   COL     4   RATE   -100.0000    
 BOUNDARY     95   LAYER   1   ROW     7   COL     5   RATE   -100.0000    
 BOUNDARY     96   LAYER   1   ROW     7   COL     6   RATE   -100.0000    
 BOUNDARY     97   LAYER   1   ROW     7   COL     7   RATE   -100.0000    
 BOUNDARY     98   LAYER   1   ROW     7   COL     8   RATE   -100.0000    
 BOUNDARY     99   LAYER   1   ROW     7   COL     9   RATE   -100.0000    
 BOUNDARY    100   LAYER   1   ROW     7   COL    10   RATE   -100.0000    
 BOUNDARY    101   LAYER   1   ROW     7   COL    11   RATE   -100.0000    
 BOUNDARY    102   LAYER   1   ROW     7   COL    12   RATE    -29.1261    
 BOUNDARY    103   LAYER   1   ROW     7   COL    13   RATE    -4.20973    
 BOUNDARY    104   LAYER   1   ROW     7   COL    14   RATE     0.00000    
 BOUNDARY    105   LAYER   1   ROW     7   COL    15   RATE     0.00000    
 BOUNDARY    106   LAYER   1   ROW     8   COL     1   RATE     0.00000    
 BOUNDARY    107   LAYER   1   ROW     8   COL     2   RATE    -13.5840    
 BOUNDARY    108   LAYER   1   ROW     8   COL     3   RATE   -100.0000    
 BOUNDARY    109   LAYER   1   ROW     8   COL     4   RATE   -100.0000    
 BOUNDARY    110   LAYER   1   ROW     8   COL     5   RATE   -100.0000    
 BOUNDARY    111   LAYER   1   ROW     8   COL     6   RATE   -100.0000    
 BOUNDARY    112   LAYER   1   ROW     8   COL     7   RATE   -100.0000    
 BOUNDARY    113   LAYER   1   ROW     8   COL     8   RATE   -100.0000    
 BOUNDARY    114   LAYER   1   ROW     8   COL     9   RATE   -100.0000    
 BOUNDARY    115   LAYER   1   ROW     8   COL    10   RATE   -100.0000    
 BOUNDARY    116   LAYER   1   ROW     8   COL    11   RATE   -100.0000    
 BOUNDARY    117   LAYER   1   ROW     8   COL    12   RATE    -29.5439    
 BOUNDARY    118   LAYER   1   ROW     8   COL    13   RATE    -4.24158    
 BOUNDARY    119   LAYER   1   ROW     8   COL    14   RATE     0.00000    
 BOUNDARY    120   LAYER   1   ROW     8   COL    15   RATE     0.00000    
 BOUNDARY    121   LAYER   1   ROW     9   COL     1   RATE    -21.1849    
 BOUNDARY    122   LAYER   1   ROW     9   COL     2   RATE    -72.8870    
 BOUNDARY    123   LAYER   1   ROW     9   COL     3   RATE   -100.0000    
 BOUNDARY    124   LAYER   1   ROW     9   COL     4   RATE   -100.0000    
 BOUNDARY    125   LAYER   1   ROW     9   COL     5   RATE   -100.0000    
 BOUNDARY    126   LAYER   1   ROW     9   COL     6   RATE   -100.0000    
 BOUNDARY    127   LAYER   1   ROW     9   COL     7   RATE   -100.0000    
 BOUNDARY    128   LAYER   1   ROW     9   COL     8   RATE   -100.0000    
 BOUNDARY    129   LAYER   1   ROW     9   COL     9   RATE   -100.0000    
 BOUNDARY    130   LAYER   1   ROW     9   COL    10   RATE   -100.0000    
 BOUNDARY    131   LAYER   1   ROW     9   COL    11   RATE   -100.0000    
 BOUNDARY    132   LAYER   1   ROW     9   COL    12   RATE    -33.5447    
 BOUNDARY    133   LAYER   1   ROW     9   COL    13   RATE    -5.10091    
 BOUNDARY    134   LAYER   1   ROW     9   COL    14   RATE     0.00000    
 BOUNDARY    135   LAYER   1   ROW     9   COL    15   RATE     0.00000    
 BOUNDARY    136   LAYER   1   ROW    10   COL     1   RATE    -81.0722    
 BOUNDARY    137   LAYER   1   ROW    10   COL     2   RATE   -100.0000    
 BOUNDARY    138   LAYER   1   ROW    10   COL     3   RATE   -100.0000    
 BOUNDARY    139   LAYER   1   ROW    10   COL     4   RATE   -100.0000    
 BOUNDARY    140   LAYER   1   ROW    10   COL     5   RATE   -100.0000    
 BOUNDARY    141   LAYER   1   ROW    10   COL     6   RATE   -100.0000    
 BOUNDARY    142   LAYER   1   ROW    10   COL     7   RATE   -100.0000    
 BOUNDARY    143   LAYER   1   ROW    10   COL     8   RATE   -100.0000    
 BOUNDARY    144   LAYER   1   ROW    10   COL     9   RATE   -100.0000    
 BOUNDARY    145   LAYER   1   ROW    10   COL    10   RATE   -100.0000    
 BOUNDARY    146   LAYER   1   ROW    10   COL    11   RATE   -100.0000    
 BOUNDARY    147   LAYER   1   ROW    10   COL    12   RATE    -37.7739    
 BOUNDARY    148   LAYER   1   ROW    10   COL    13   RATE    -5.64830    
 BOUNDARY    149   LAYER   1   ROW    10   COL    14   RATE     0.00000    
 BOUNDARY    150   LAYER   1   ROW    10   COL    15   RATE     0.00000    

 HEAD WILL BE SAVED ON UNIT 1017 AT END OF TIME STEP    5, STRESS PERIOD    5
WEL   no.    1 value from time series:   0.0000     for time:  96.00     to  97.00    
WEL   no.    2 value from time series:   0.0000     for time:  96.00     to  97.00    
RIV   no.    1 value from time series:   101.00     for time:  96.00     to  97.00    
RIV   no.    2 value from time series:   101.00     for time:  96.00     to  97.00    
RIV   no.    3 value from time series:   111.50     for time:  96.00     to  97.00    
RIV   no.    4 value from time series:   111.50     for time:  96.00     to  97.00    
RIV   no.    5 value from time series:   115.10     for time:  96.00     to  97.00    
RIV   no.    6 value from time series:   115.10     for time:  96.00     to  97.00    
RIV   no.    7 value from time series:   104.00     for time:  96.00     to  97.00    
RIV   no.    8 value from time series:   104.00     for time:  96.00     to  97.00    
RIV   no.    9 value from time series:   113.50     for time:  96.00     to  97.00    
RIV   no.   10 value from time series:   113.50     for time:  96.00     to  97.00    
WEL   no.    1 value from time series:   0.0000     for time:  96.00     to  97.00    
WEL   no.    2 value from time series:   0.0000     for time:  96.00     to  97.00    
RIV   no.    1 value from time series:   101.00     for time:  96.00     to  97.00    
RIV   no.    2 value from time series:   101.00     for time:  96.00     to  97.00    
RIV   no.    3 value from time series:   111.50     for time:  96.00     to  97.00    
RIV   no.    4 value from time series:   111.50     for time:  96.00     to  97.00    
RIV   no.    5 value from time series:   115.10     for time:  96.00     to  97.00    
RIV   no.    6 value from time series:   115.10     for time:  96.00     to  97.00    
RIV   no.    7 value from time series:   104.00     for time:  96.00     to  97.00    
RIV   no.    8 value from time series:   104.00     for time:  96.00     to  97.00    
RIV   no.    9 value from time series:   113.50     for time:  96.00     to  97.00    
RIV   no.   10 value from time series:   113.50     for time:  96.00     to  97.00    

 OUTPUT CONTROL FOR STRESS PERIOD    5   TIME STEP    6
    SAVE BUDGET
    SAVE HEAD
    SAVE HEAD FOR ALL LAYERS
 UBDSV1 SAVING          STORAGE ON UNIT   1016 AT TIME STEP      6, STRESS PERIOD      5
 UBDSV1 SAVING FLOW RIGHT FACE  ON UNIT   1016 AT TIME STEP      6, STRESS PERIOD      5
 UBDSV1 SAVING FLOW FRONT FACE  ON UNIT   1016 AT TIME STEP      6, STRESS PERIOD      5
 UBDSV1 SAVING FLOW LOWER FACE  ON UNIT   1016 AT TIME STEP      6, STRESS PERIOD      5
 UBDSV4 SAVING WELLS NEAR RIVER ON UNIT   1016 AT TIME STEP      6, STRESS PERIOD      5

 WELLS NEAR RIVER   PERIOD  5   STEP  6
 BOUNDARY      1   LAYER   2   ROW     8   COL     4   RATE     0.00000      WELL_2
 BOUNDARY      2   LAYER   2   ROW     3   COL     4   RATE     0.00000      WELL_1
 UBDSV4 SAVING RIVER            ON UNIT   1016 AT TIME STEP      6, STRESS PERIOD      5

 RIVER              PERIOD  5   STEP  6
 BOUNDARY      1   LAYER   1   ROW     1   COL    15   RATE    -4888.79    
 BOUNDARY      2   LAYER   1   ROW     2   COL    15   RATE    -6013.12      RIV2
 BOUNDARY      3   LAYER   1   ROW     3   COL    15   RATE    -2279.17      RIV3
 BOUNDARY      4   LAYER   1   ROW     4   COL    15   RATE    -3742.55    
 BOUNDARY      5   LAYER   1   ROW     5   COL    15   RATE    -2380.62    
 BOUNDARY      6   LAYER   1   ROW     6   COL    15   RATE    -1728.42    
 BOUNDARY      7   LAYER   1   ROW     7   COL    15   RATE    -6210.57      RIVX
 BOUNDARY      8   LAYER   1   ROW     8   COL    15   RATE    -6058.58      RIVX
 BOUNDARY      9   LAYER   1   ROW     9   COL    15   RATE    -2268.17      RIVX
 BOUNDARY     10   LAYER   1   ROW    10   COL    15   RATE    -3172.93    

 GHB LAKES          PERIOD  5   STEP  6
 BOUNDARY      1   LAYER   1   ROW     3   COL     1   RATE    -14736.0    
 BOUNDARY      2   LAYER   1   ROW     7   COL     1   RATE    -2051.68      GHB2_UPPER
 BOUNDARY      3   LAYER   1   ROW     7   COL     1   RATE    -13310.6      GHB2_LOWER
 UBDSV4 SAVING RECHARGE         ON UNIT   1016 AT TIME STEP      6, STRESS PERIOD      5

 RECHARGE           PERIOD  5   STEP  6
 BOUNDARY      1   LAYER   1   ROW     1   COL     1   RATE     746.667    
 BOUNDARY      2   LAYER   1   ROW     1   COL     2   RATE     746.667    
 BOUNDARY      3   LAYER   1   ROW     1   COL     3   RATE     746.667    
 BOUNDARY      4   LAYER   1   ROW     1   COL     4   RATE     746.667    
 BOUNDARY      5   LAYER   1   ROW     1   COL     5   RATE     746.667    
 BOUNDARY      6   LAYER   1   ROW     1   COL     6   RATE     746.667    
 BOUNDARY      7   LAYER   1   ROW     1   COL     7   RATE     746.667    
 BOUNDARY      8   LAYER   1   ROW     1   COL     8   RATE     746.667    
 BOUNDARY      9   LAYER   1   ROW     1   COL     9   RATE     746.667    
 BOUNDARY     10   LAYER   1   ROW     1   COL    10   RATE     746.667    
 BOUNDARY     11   LAYER   1   ROW     1   COL    11   RATE     746.667    
 BOUNDARY     12   LAYER   1   ROW     1   COL    12   RATE     746.667    
 BOUNDARY     13   LAYER   1   ROW     1   COL    13   RATE     746.667    
 BOUNDARY     14   LAYER   1   ROW     1   COL    14   RATE     746.667    
 BOUNDARY     15   LAYER   1   ROW     1   COL    15   RATE     746.667    
 BOUNDARY     16   LAYER   1   ROW     2   COL     1   RATE     746.667    
 BOUNDARY     17   LAYER   1   ROW     2   COL     2   RATE     746.667    
 BOUNDARY     18   LAYER   1   ROW     2   COL     3   RATE     746.667    
 BOUNDARY     19   LAYER   1   ROW     2   COL     4   RATE     746.667    
 BOUNDARY     20   LAYER   1   ROW     2   COL     5   RATE     746.667    
 BOUNDARY     21   LAYER   1   ROW     2   COL     6   RATE     746.667    
 BOUNDARY     22   LAYER   1   ROW     2   COL     7   RATE     746.667    
 BOUNDARY     23   LAYER   1   ROW     2   COL     8   RATE     746.667    
 BOUNDARY     24   LAYER   1   ROW     2   COL     9   RATE     746.667    
 BOUNDARY     25   LAYER   1   ROW     2   COL    10   RATE     746.667    
 BOUNDARY     26   LAYER   1   ROW     2   COL    11   RATE     746.667    
 BOUNDARY     27   LAYER   1   ROW     2   COL    12   RATE     746.667    
 BOUNDARY     28   LAYER   1   ROW     2   COL    13   RATE     746.667    
 BOUNDARY     29   LAYER   1   ROW     2   COL    14   RATE     746.667    
 BOUNDARY     30   LAYER   1   ROW     2   COL    15   RATE     746.667    
 BOUNDARY     31   LAYER   1   ROW     3   COL     1   RATE     746.667    
 BOUNDARY     32   LAYER   1   ROW     3   COL     2   RATE     746.667    
 BOUNDARY     33   LAYER   1   ROW     3   COL     3   RATE     746.667    
 BOUNDARY     34   LAYER   1   ROW     3   COL     4   RATE     746.667    
 BOUNDARY     35   LAYER   1   ROW     3   COL     5   RATE     746.667    
 BOUNDARY     36   LAYER   1   ROW     3   COL     6   RATE     746.667    
 BOUNDARY     37   LAYER   1   ROW     3   COL     7   RATE     746.667    
 BOUNDARY     38   LAYER   1   ROW     3   COL     8   RATE     746.667    
 BOUNDARY     39   LAYER   1   ROW     3   COL     9   RATE     746.667    
 BOUNDARY     40   LAYER   1   ROW     3   COL    10   RATE     746.667    
 BOUNDARY     41   LAYER   1   ROW     3   COL    11   RATE     746.667    
 BOUNDARY     42   LAYER   1   ROW     3   COL    12   RATE     746.667    
 BOUNDARY     43   LAYER   1   ROW     3   COL    13   RATE     746.667    
 BOUNDARY     44   LAYER   1   ROW     3   COL    14   RATE     746.667    
 BOUNDARY     45   LAYER   1   ROW     3   COL    15   RATE     746.667    
 BOUNDARY     46   LAYER   1   ROW     4   COL     1   RATE     746.667    
 BOUNDARY     47   LAYER   1   ROW     4   COL     2   RATE     746.667    
 BOUNDARY     48   LAYER   1   ROW     4   COL     3   RATE     746.667    
 BOUNDARY     49   LAYER   1   ROW     4   COL     4   RATE     746.667    
 BOUNDARY     50   LAYER   1   ROW     4   COL     5   RATE     746.667    
 BOUNDARY     51   LAYER   1   ROW     4   COL     6   RATE     746.667    
 BOUNDARY     52   LAYER   1   ROW     4   COL     7   RATE     746.667    
 BOUNDARY     53   LAYER   1   ROW     4   COL     8   RATE     746.667    
 BOUNDARY     54   LAYER   1   ROW     4   COL     9   RATE     746.667    
 BOUNDARY     55   LAYER   1   ROW     4   COL    10   RATE     746.667    
 BOUNDARY     56   LAYER   1   ROW     4   COL    11   RATE     746.667    
 BOUNDARY     57   LAYER   1   ROW     4   COL    12   RATE     746.667    
 BOUNDARY     58   LAYER   1   ROW     4   COL    13   RATE     746.667    
 BOUNDARY     59   LAYER   1   ROW     4   COL    14   RATE     746.667    
 BOUNDARY     60   LAYER   1   ROW     4   COL    15   RATE     746.667    
 BOUNDARY     61   LAYER   1   ROW     5   COL     1   RATE     746.667    
 BOUNDARY     62   LAYER   1   ROW     5   COL     2   RATE     746.667    
 BOUNDARY     63   LAYER   1   ROW     5   COL     3   RATE     746.667    
 BOUNDARY     64   LAYER   1   ROW     5   COL     4   RATE     746.667    
 BOUNDARY     65   LAYER   1   ROW     5   COL     5   RATE     746.667    
 BOUNDARY     66   LAYER   1   ROW     5   COL     6   RATE     746.667    
 BOUNDARY     67   LAYER   1   ROW     5   COL     7   RATE     746.667    
 BOUNDARY     68   LAYER   1   ROW     5   COL     8   RATE     746.667    
 BOUNDARY     69   LAYER   1   ROW     5   COL     9   RATE     746.667    
 BOUNDARY     70   LAYER   1   ROW     5   COL    10   RATE     746.667    
 BOUNDARY     71   LAYER   1   ROW     5   COL    11   RATE     746.667    
 BOUNDARY     72   LAYER   1   ROW     5   COL    12   RATE     746.667    
 BOUNDARY     73   LAYER   1   ROW     5   COL    13   RATE     746.667    
 BOUNDARY     74   LAYER   1   ROW     5   COL    14   RATE     746.667    
 BOUNDARY     75   LAYER   1   ROW     5   COL    15   RATE     746.667    
 BOUNDARY     76   LAYER   1   ROW     6   COL     1   RATE     746.667    
 BOUNDARY     77   LAYER   1   ROW     6   COL     2   RATE     746.667    
 BOUNDARY     78   LAYER   1   ROW     6   COL     3   RATE     746.667    
 BOUNDARY     79   LAYER   1   ROW     6   COL     4   RATE     746.667    
 BOUNDARY     80   LAYER   1   ROW     6   COL     5   RATE     746.667    
 BOUNDARY     81   LAYER   1   ROW     6   COL     6   RATE     746.667    
 BOUNDARY     82   LAYER   1   ROW     6   COL     7   RATE     746.667    
 BOUNDARY     83   LAYER   1   ROW     6   COL     8   RATE     746.667    
 BOUNDARY     84   LAYER   1   ROW     6   COL     9   RATE     746.667    
 BOUNDARY     85   LAYER   1   ROW     6   COL    10   RATE     746.667    
 BOUNDARY     86   LAYER   1   ROW     6   COL    11   RATE     746.667    
 BOUNDARY     87   LAYER   1   ROW     6   COL    12   RATE     746.667    
 BOUNDARY     88   LAYER   1   ROW     6   COL    13   RATE     746.667    
 BOUNDARY     89   LAYER   1   ROW     6   COL    14   RATE     746.667    
 BOUNDARY     90   LAYER   1   ROW     6   COL    15   RATE     746.667    
 BOUNDARY     91   LAYER   1   ROW     7   COL     1   RATE     746.667    
 BOUNDARY     92   LAYER   1   ROW     7   COL     2   RATE     746.667    
 BOUNDARY     93   LAYER   1   ROW     7   COL     3   RATE     746.667    
 BOUNDARY     94   LAYER   1   ROW     7   COL     4   RATE     746.667    
 BOUNDARY     95   LAYER   1   ROW     7   COL     5   RATE     746.667    
 BOUNDARY     96   LAYER   1   ROW     7   COL     6   RATE     746.667    
 BOUNDARY     97   LAYER   1   ROW     7   COL     7   RATE     746.667    
 BOUNDARY     98   LAYER   1   ROW     7   COL     8   RATE     746.667    
 BOUNDARY     99   LAYER   1   ROW     7   COL     9   RATE     746.667    
 BOUNDARY    100   LAYER   1   ROW     7   COL    10   RATE     746.667    
 BOUNDARY    101   LAYER   1   ROW     7   COL    11   RATE     746.667    
 BOUNDARY    102   LAYER   1   ROW     7   COL    12   RATE     746.667    
 BOUNDARY    103   LAYER   1   ROW     7   COL    13   RATE     746.667    
 BOUNDARY    104   LAYER   1   ROW     7   COL    14   RATE     746.667    
 BOUNDARY    105   LAYER   1   ROW     7   COL    15   RATE     746.667    
 BOUNDARY    106   LAYER   1   ROW     8   COL     1   RATE     746.667    
 BOUNDARY    107   LAYER   1   ROW     8   COL     2   RATE     746.667    
 BOUNDARY    108   LAYER   1   ROW     8   COL     3   RATE     746.667    
 BOUNDARY    109   LAYER   1   ROW     8   COL     4   RATE     746.667    
 BOUNDARY    110   LAYER   1   ROW     8   COL     5   RATE     746.667    
 BOUNDARY    111   LAYER   1   ROW     8   COL     6   RATE     746.667    
 BOUNDARY    112   LAYER   1   ROW     8   COL     7   RATE     746.667    
 BOUNDARY    113   LAYER   1   ROW     8   COL     8   RATE     746.667    
 BOUNDARY    114   LAYER   1   ROW     8   COL     9   RATE     746.667    
 BOUNDARY    115   LAYER   1   ROW     8   COL    10   RATE     746.667    
 BOUNDARY    116   LAYER   1   ROW     8   COL    11   RATE     746.667    
 BOUNDARY    117   LAYER   1   ROW     8   COL    12   RATE     746.667    
 BOUNDARY    118   LAYER   1   ROW     8   COL    13   RATE     746.667    
 BOUNDARY    119   LAYER   1   ROW     8   COL    14   RATE     746.667    
 BOUNDARY    120   LAYER   1   ROW     8   COL    15   RATE     746.667    
 BOUNDARY    121   LAYER   1   ROW     9   COL     1   RATE     746.667    
 BOUNDARY    122   LAYER   1   ROW     9   COL     2   RATE     746.667    
 BOUNDARY    123   LAYER   1   ROW     9   COL     3   RATE     746.667    
 BOUNDARY    124   LAYER   1   ROW     9   COL     4   RATE     746.667    
 BOUNDARY    125   LAYER   1   ROW     9   COL     5   RATE     746.667    
 BOUNDARY    126   LAYER   1   ROW     9   COL     6   RATE     746.667    
 BOUNDARY    127   LAYER   1   ROW     9   COL     7   RATE     746.667    
 BOUNDARY    128   LAYER   1   ROW     9   COL     8   RATE     746.667    
 BOUNDARY    129   LAYER   1   ROW     9   COL     9   RATE     746.667    
 BOUNDARY    130   LAYER   1   ROW     9   COL    10   RATE     746.667    
 BOUNDARY    131   LAYER   1   ROW     9   COL    11   RATE     746.667    
 BOUNDARY    132   LAYER   1   ROW     9   COL    12   RATE     746.667    
 BOUNDARY    133   LAYER   1   ROW     9   COL    13   RATE     746.667    
 BOUNDARY    134   LAYER   1   ROW     9   COL    14   RATE     746.667    
 BOUNDARY    135   LAYER   1   ROW     9   COL    15   RATE     746.667    
 BOUNDARY    136   LAYER   1   ROW    10   COL     1   RATE     746.667    
 BOUNDARY    137   LAYER   1   ROW    10   COL     2   RATE     746.667    
 BOUNDARY    138   LAYER   1   ROW    10   COL     3   RATE     746.667    
 BOUNDARY    139   LAYER   1   ROW    10   COL     4   RATE     746.667    
 BOUNDARY    140   LAYER   1   ROW    10   COL     5   RATE     746.667    
 BOUNDARY    141   LAYER   1   ROW    10   COL     6   RATE     746.667    
 BOUNDARY    142   LAYER   1   ROW    10   COL     7   RATE     746.667    
 BOUNDARY    143   LAYER   1   ROW    10   COL     8   RATE     746.667    
 BOUNDARY    144   LAYER   1   ROW    10   COL     9   RATE     746.667    
 BOUNDARY    145   LAYER   1   ROW    10   COL    10   RATE     746.667    
 BOUNDARY    146   LAYER   1   ROW    10   COL    11   RATE     746.667    
 BOUNDARY    147   LAYER   1   ROW    10   COL    12   RATE     746.667    
 BOUNDARY    148   LAYER   1   ROW    10   COL    13   RATE     746.667    
 BOUNDARY    149   LAYER   1   ROW    10   COL    14   RATE     746.667    
 BOUNDARY    150   LAYER   1   ROW    10   COL    15   RATE     746.667    
 UBDSV4 SAVING ET SEGS          ON UNIT   1016 AT TIME STEP      6, STRESS PERIOD      5

 ET SEGS            PERIOD  5   STEP  6
 BOUNDARY      1   LAYER   1   ROW     1   COL     1   RATE    -2.87594    
 BOUNDARY      2   LAYER   1   ROW     1   COL     2   RATE    -9.73141    
 BOUNDARY      3   LAYER   1   ROW     1   COL     3   RATE    -61.6668    
 BOUNDARY      4   LAYER   1   ROW     1   COL     4   RATE   -100.0000    
 BOUNDARY      5   LAYER   1   ROW     1   COL     5   RATE   -100.0000    
 BOUNDARY      6   LAYER   1   ROW     1   COL     6   RATE   -100.0000    
 BOUNDARY      7   LAYER   1   ROW     1   COL     7   RATE   -100.0000    
 BOUNDARY      8   LAYER   1   ROW     1   COL     8   RATE   -100.0000    
 BOUNDARY      9   LAYER   1   ROW     1   COL     9   RATE   -100.0000    
 BOUNDARY     10   LAYER   1   ROW     1   COL    10   RATE   -100.0000    
 BOUNDARY     11   LAYER   1   ROW     1   COL    11   RATE   -100.0000    
 BOUNDARY     12   LAYER   1   ROW     1   COL    12   RATE    -19.3153    
 BOUNDARY     13   LAYER   1   ROW     1   COL    13   RATE     0.00000    
 BOUNDARY     14   LAYER   1   ROW     1   COL    14   RATE     0.00000    
 BOUNDARY     15   LAYER   1   ROW     1   COL    15   RATE     0.00000    
 BOUNDARY     16   LAYER   1   ROW     2   COL     1   RATE     0.00000    
 BOUNDARY     17   LAYER   1   ROW     2   COL     2   RATE    -5.19974    
 BOUNDARY     18   LAYER   1   ROW     2   COL     3   RATE    -33.5039    
 BOUNDARY     19   LAYER   1   ROW     2   COL     4   RATE   -100.0000    
 BOUNDARY     20   LAYER   1   ROW     2   COL     5   RATE   -100.0000    
 BOUNDARY     21   LAYER   1   ROW     2   COL     6   RATE   -100.0000    
 BOUNDARY     22   LAYER   1   ROW     2   COL     7   RATE   -100.0000    
 BOUNDARY     23   LAYER   1   ROW     2   COL     8   RATE   -100.0000    
 BOUNDARY     24   LAYER   1   ROW     2   COL     9   RATE   -100.0000    
 BOUNDARY     25   LAYER   1   ROW     2   COL    10   RATE   -100.0000    
 BOUNDARY     26   LAYER   1   ROW     2   COL    11   RATE   -100.0000    
 BOUNDARY     27   LAYER   1   ROW     2   COL    12   RATE    -21.0573    
 BOUNDARY     28   LAYER   1   ROW     2   COL    13   RATE   -0.866524    
 BOUNDARY     29   LAYER   1   ROW     2   COL    14   RATE     0.00000    
 BOUNDARY     30   LAYER   1   ROW     2   COL    15   RATE     0.00000    
 BOUNDARY     31   LAYER   1   ROW     3   COL     1   RATE     0.00000    
 BOUNDARY     32   LAYER   1   ROW     3   COL     2   RATE     0.00000    
 BOUNDARY     33   LAYER   1   ROW     3   COL     3   RATE    -24.6917    
 BOUNDARY     34   LAYER   1   ROW     3   COL     4   RATE   -100.0000    
 BOUNDARY     35   LAYER   1   ROW     3   COL     5   RATE   -100.0000    
 BOUNDARY     36   LAYER   1   ROW     3   COL     6   RATE   -100.0000    
 BOUNDARY     37   LAYER   1   ROW     3   COL     7   RATE   -100.0000    
 BOUNDARY     38   LAYER   1   ROW     3   COL     8   RATE   -100.0000    
 BOUNDARY     39   LAYER   1   ROW     3   COL     9   RATE   -100.0000    
 BOUNDARY     40   LAYER   1   ROW     3   COL    10   RATE   -100.0000    
 BOUNDARY     41   LAYER   1   ROW     3   COL    11   RATE   -100.0000    
 BOUNDARY     42   LAYER   1   ROW     3   COL    12   RATE    -23.9936    
 BOUNDARY     43   LAYER   1   ROW     3   COL    13   RATE    -2.66078    
 BOUNDARY     44   LAYER   1   ROW     3   COL    14   RATE     0.00000    
 BOUNDARY     45   LAYER   1   ROW     3   COL    15   RATE     0.00000    
 BOUNDARY     46   LAYER   1   ROW     4   COL     1   RATE     0.00000    
 BOUNDARY     47   LAYER   1   ROW     4   COL     2   RATE    -3.69232    
 BOUNDARY     48   LAYER   1   ROW     4   COL     3   RATE    -28.5904    
 BOUNDARY     49   LAYER   1   ROW     4   COL     4   RATE   -100.0000    
 BOUNDARY     50   LAYER   1   ROW     4   COL     5   RATE   -100.0000    
 BOUNDARY     51   LAYER   1   ROW     4   COL     6   RATE   -100.0000    
 BOUNDARY     52   LAYER   1   ROW     4   COL     7   RATE   -100.0000    
 BOUNDARY     53   LAYER   1   ROW     4   COL     8   RATE   -100.0000    
 BOUNDARY     54   LAYER   1   ROW     4   COL     9   RATE   -100.0000    
 BOUNDARY     55   LAYER   1   ROW     4   COL    10   RATE   -100.0000    
 BOUNDARY     56   LAYER   1   ROW     4   COL    11   RATE   -100.0000    
 BOUNDARY     57   LAYER   1   ROW     4   COL    12   RATE    -26.7798    
 BOUNDARY     58   LAYER   1   ROW     4   COL    13   RATE    -4.11162    
 BOUNDARY     59   LAYER   1   ROW     4   COL    14   RATE     0.00000    
 BOUNDARY     60   LAYER   1   ROW     4   COL    15   RATE     0.00000    
 BOUNDARY     61   LAYER   1   ROW     5   COL     1   RATE     0.00000    
 BOUNDARY     62   LAYER   1   ROW     5   COL     2   RATE    -6.67505    
 BOUNDARY     63   LAYER   1   ROW     5   COL     3   RATE    -43.4093    
 BOUNDARY     64   LAYER   1   ROW     5   COL     4   RATE   -100.0000    
 BOUNDARY     65   LAYER   1   ROW     5   COL     5   RATE   -100.0000    
 BOUNDARY     66   LAYER   1   ROW     5   COL     6   RATE   -100.0000    
 BOUNDARY     67   LAYER   1   ROW     5   COL     7   RATE   -100.0000    
 BOUNDARY     68   LAYER   1   ROW     5   COL     8   RATE   -100.0000    
 BOUNDARY     69   LAYER   1   ROW     5   COL     9   RATE   -100.0000    
 BOUNDARY     70   LAYER   1   ROW     5   COL    10   RATE   -100.0000    
 BOUNDARY     71   LAYER   1   ROW     5   COL    11   RATE   -100.0000    
 BOUNDARY     72   LAYER   1   ROW     5   COL    12   RATE    -28.6931    
 BOUNDARY     73   LAYER   1   ROW     5   COL    13   RATE    -4.99454    
 BOUNDARY     74   LAYER   1   ROW     5   COL    14   RATE     0.00000    
 BOUNDARY     75   LAYER   1   ROW     5   COL    15   RATE     0.00000    
 BOUNDARY     76   LAYER   1   ROW     6   COL     1   RATE     0.00000    
 BOUNDARY     77   LAYER   1   ROW     6   COL     2   RATE    -5.22928    
 BOUNDARY     78   LAYER   1   ROW     6   COL     3   RATE    -47.1814    
 BOUNDARY     79   LAYER   1   ROW     6   COL     4   RATE   -100.0000    
 BOUNDARY     80   LAYER   1   ROW     6   COL     5   RATE   -100.0000    
 BOUNDARY     81   LAYER   1   ROW     6   COL     6   RATE   -100.0000    
 BOUNDARY     82   LAYER   1   ROW     6   COL     7   RATE   -100.0000    
 BOUNDARY     83   LAYER   1   ROW     6   COL     8   RATE   -100.0000    
 BOUNDARY     84   LAYER   1   ROW     6   COL     9   RATE   -100.0000    
 BOUNDARY     85   LAYER   1   ROW     6   COL    10   RATE   -100.0000    
 BOUNDARY     86   LAYER   1   ROW     6   COL    11   RATE   -100.0000    
 BOUNDARY     87   LAYER   1   ROW     6   COL    12   RATE    -29.3354    
 BOUNDARY     88   LAYER   1   ROW     6   COL    13   RATE    -4.94543    
 BOUNDARY     89   LAYER   1   ROW     6   COL    14   RATE     0.00000    
 BOUNDARY     90   LAYER   1   ROW     6   COL    15   RATE     0.00000    
 BOUNDARY     91   LAYER   1   ROW     7   COL     1   RATE     0.00000    
 BOUNDARY     92   LAYER   1   ROW     7   COL     2   RATE    -1.68759    
 BOUNDARY     93   LAYER   1   ROW     7   COL     3   RATE    -53.9773    
 BOUNDARY     94   LAYER   1   ROW     7   COL     4   RATE   -100.0000    
 BOUNDARY     95   LAYER   1   ROW     7   COL     5   RATE   -100.0000    
 BOUNDARY     96   LAYER   1   ROW     7   COL     6   RATE   -100.0000    
 BOUNDARY     97   LAYER   1   ROW     7   COL     7   RATE   -100.0000    
 BOUNDARY     98   LAYER   1   ROW     7   COL     8   RATE   -100.0000    
 BOUNDARY     99   LAYER   1   ROW     7   COL     9   RATE   -100.0000    
 BOUNDARY    100   LAYER   1   ROW     7   COL    10   RATE   -100.0000    
 BOUNDARY    101   LAYER   1   ROW     7   COL    11   RATE   -100.0000    
 BOUNDARY    102   LAYER   1   ROW     7   COL    12   RATE    -29.1900    
 BOUNDARY    103   LAYER   1   ROW     7   COL    13   RATE    -4.22828    
 BOUNDARY    104   LAYER   1   ROW     7   COL    14   RATE     0.00000    
 BOUNDARY    105   LAYER   1   ROW     7   COL    15   RATE     0.00000    
 BOUNDARY    106   LAYER   1   ROW     8   COL     1   RATE     0.00000    
 BOUNDARY    107   LAYER   1   ROW     8   COL     2   RATE    -13.6448    
 BOUNDARY    108   LAYER   1   ROW     8   COL     3   RATE   -100.0000    
 BOUNDARY    109   LAYER   1   ROW     8   COL     4   RATE   -100.0000    
 BOUNDARY    110   LAYER   1   ROW     8   COL     5   RATE   -100.0000    
 BOUNDARY    111   LAYER   1   ROW     8   COL     6   RATE   -100.0000    
 BOUNDARY    112   LAYER   1   ROW     8   COL     7   RATE   -100.0000    
 BOUNDARY    113   LAYER   1   ROW     8   COL     8   RATE   -100.0000    
 BOUNDARY    114   LAYER   1   ROW     8   COL     9   RATE   -100.0000    
 BOUNDARY    115   LAYER   1   ROW     8   COL    10   RATE   -100.0000    
 BOUNDARY    116   LAYER   1   ROW     8   COL    11   RATE   -100.0000    
 BOUNDARY    117   LAYER   1   ROW     8   COL    12   RATE    -29.6084    
 BOUNDARY    118   LAYER   1   ROW     8   COL    13   RATE    -4.26054    
 BOUNDARY    119   LAYER   1   ROW     8   COL    14   RATE     0.00000    
 BOUNDARY    120   LAYER   1   ROW     8   COL    15   RATE     0.00000    
 BOUNDARY    121   LAYER   1   ROW     9   COL     1   RATE    -21.2462    
 BOUNDARY    122   LAYER   1   ROW     9   COL     2   RATE    -73.2118    
 BOUNDARY    123   LAYER   1   ROW     9   COL     3   RATE   -100.0000    
 BOUNDARY    124   LAYER   1   ROW     9   COL     4   RATE   -100.0000    
 BOUNDARY    125   LAYER   1   ROW     9   COL     5   RATE   -100.0000    
 BOUNDARY    126   LAYER   1   ROW     9   COL     6   RATE   -100.0000    
 BOUNDARY    127   LAYER   1   ROW     9   COL     7   RATE   -100.0000    
 BOUNDARY    128   LAYER   1   ROW     9   COL     8   RATE   -100.0000    
 BOUNDARY    129   LAYER   1   ROW     9   COL     9   RATE   -100.0000    
 BOUNDARY    130   LAYER   1   ROW     9   COL    10   RATE   -100.0000    
 BOUNDARY    131   LAYER   1   ROW     9   COL    11   RATE   -100.0000    
 BOUNDARY    132   LAYER   1   ROW     9   COL    12   RATE    -33.8833    
 BOUNDARY    133   LAYER   1   ROW     9   COL    13   RATE    -5.12032    
 BOUNDARY    134   LAYER   1   ROW     9   COL    14   RATE     0.00000    
 BOUNDARY    135   LAYER   1   ROW     9   COL    15   RATE     0.00000    
 BOUNDARY    136   LAYER   1   ROW    10   COL     1   RATE    -81.3959    
 BOUNDARY    137   LAYER   1   ROW    10   COL     2   RATE   -100.0000    
 BOUNDARY    138   LAYER   1   ROW    10   COL     3   RATE   -100.0000    
 BOUNDARY    139   LAYER   1   ROW    10   COL     4   RATE   -100.0000    
 BOUNDARY    140   LAYER   1   ROW    10   COL     5   RATE   -100.0000    
 BOUNDARY    141   LAYER   1   ROW    10   COL     6   RATE   -100.0000    
 BOUNDARY    142   LAYER   1   ROW    10   COL     7   RATE   -100.0000    
 BOUNDARY    143   LAYER   1   ROW    10   COL     8   RATE   -100.0000    
 BOUNDARY    144   LAYER   1   ROW    10   COL     9   RATE   -100.0000    
 BOUNDARY    145   LAYER   1   ROW    10   COL    10   RATE   -100.0000    
 BOUNDARY    146   LAYER   1   ROW    10   COL    11   RATE   -100.0000    
 BOUNDARY    147   LAYER   1   ROW    10   COL    12   RATE    -38.1129    
 BOUNDARY    148   LAYER   1   ROW    10   COL    13   RATE    -5.66797    
 BOUNDARY    149   LAYER   1   ROW    10   COL    14   RATE     0.00000    
 BOUNDARY    150   LAYER   1   ROW    10   COL    15   RATE     0.00000    

 HEAD WILL BE SAVED ON UNIT 1017 AT END OF TIME STEP    6, STRESS PERIOD    5
WEL   no.    1 value from time series:   0.0000     for time:  97.00     to  98.00    
WEL   no.    2 value from time series:   0.0000     for time:  97.00     to  98.00    
RIV   no.    1 value from time series:   101.00     for time:  97.00     to  98.00    
RIV   no.    2 value from time series:   101.00     for time:  97.00     to  98.00    
RIV   no.    3 value from time series:   111.50     for time:  97.00     to  98.00    
RIV   no.    4 value from time series:   111.50     for time:  97.00     to  98.00    
RIV   no.    5 value from time series:   115.10     for time:  97.00     to  98.00    
RIV   no.    6 value from time series:   115.10     for time:  97.00     to  98.00    
RIV   no.    7 value from time series:   104.00     for time:  97.00     to  98.00    
RIV   no.    8 value from time series:   104.00     for time:  97.00     to  98.00    
RIV   no.    9 value from time series:   113.50     for time:  97.00     to  98.00    
RIV   no.   10 value from time series:   113.50     for time:  97.00     to  98.00    
WEL   no.    1 value from time series:   0.0000     for time:  97.00     to  98.00    
WEL   no.    2 value from time series:   0.0000     for time:  97.00     to  98.00    
RIV   no.    1 value from time series:   101.00     for time:  97.00     to  98.00    
RIV   no.    2 value from time series:   101.00     for time:  97.00     to  98.00    
RIV   no.    3 value from time series:   111.50     for time:  97.00     to  98.00    
RIV   no.    4 value from time series:   111.50     for time:  97.00     to  98.00    
RIV   no.    5 value from time series:   115.10     for time:  97.00     to  98.00    
RIV   no.    6 value from time series:   115.10     for time:  97.00     to  98.00    
RIV   no.    7 value from time series:   104.00     for time:  97.00     to  98.00    
RIV   no.    8 value from time series:   104.00     for time:  97.00     to  98.00    
RIV   no.    9 value from time series:   113.50     for time:  97.00     to  98.00    
RIV   no.   10 value from time series:   113.50     for time:  97.00     to  98.00    

 OUTPUT CONTROL FOR STRESS PERIOD    5   TIME STEP    7
    SAVE BUDGET
    SAVE HEAD
    SAVE HEAD FOR ALL LAYERS
 UBDSV1 SAVING          STORAGE ON UNIT   1016 AT TIME STEP      7, STRESS PERIOD      5
 UBDSV1 SAVING FLOW RIGHT FACE  ON UNIT   1016 AT TIME STEP      7, STRESS PERIOD      5
 UBDSV1 SAVING FLOW FRONT FACE  ON UNIT   1016 AT TIME STEP      7, STRESS PERIOD      5
 UBDSV1 SAVING FLOW LOWER FACE  ON UNIT   1016 AT TIME STEP      7, STRESS PERIOD      5
 UBDSV4 SAVING WELLS NEAR RIVER ON UNIT   1016 AT TIME STEP      7, STRESS PERIOD      5

 WELLS NEAR RIVER   PERIOD  5   STEP  7
 BOUNDARY      1   LAYER   2   ROW     8   COL     4   RATE     0.00000      WELL_2
 BOUNDARY      2   LAYER   2   ROW     3   COL     4   RATE     0.00000      WELL_1
 UBDSV4 SAVING RIVER            ON UNIT   1016 AT TIME STEP      7, STRESS PERIOD      5

 RIVER              PERIOD  5   STEP  7
 BOUNDARY      1   LAYER   1   ROW     1   COL    15   RATE    -4892.41    
 BOUNDARY      2   LAYER   1   ROW     2   COL    15   RATE    -6016.85      RIV2
 BOUNDARY      3   LAYER   1   ROW     3   COL    15   RATE    -2282.94      RIV3
 BOUNDARY      4   LAYER   1   ROW     4   COL    15   RATE    -3746.38    
 BOUNDARY      5   LAYER   1   ROW     5   COL    15   RATE    -2384.38    
 BOUNDARY      6   LAYER   1   ROW     6   COL    15   RATE    -1732.13    
 BOUNDARY      7   LAYER   1   ROW     7   COL    15   RATE    -6214.40      RIVX
 BOUNDARY      8   LAYER   1   ROW     8   COL    15   RATE    -6062.52      RIVX
 BOUNDARY      9   LAYER   1   ROW     9   COL    15   RATE    -2272.17      RIVX
 BOUNDARY     10   LAYER   1   ROW    10   COL    15   RATE    -3177.05    

 GHB LAKES          PERIOD  5   STEP  7
 BOUNDARY      1   LAYER   1   ROW     3   COL     1   RATE    -14742.9    
 BOUNDARY      2   LAYER   1   ROW     7   COL     1   RATE    -2057.16      GHB2_UPPER
 BOUNDARY      3   LAYER   1   ROW     7   COL     1   RATE    -13312.5      GHB2_LOWER
 UBDSV4 SAVING RECHARGE         ON UNIT   1016 AT TIME STEP      7, STRESS PERIOD      5

 RECHARGE           PERIOD  5   STEP  7
 BOUNDARY      1   LAYER   1   ROW     1   COL     1   RATE     750.000    
 BOUNDARY      2   LAYER   1   ROW     1   COL     2   RATE     750.000    
 BOUNDARY      3   LAYER   1   ROW     1   COL     3   RATE     750.000    
 BOUNDARY      4   LAYER   1   ROW     1   COL     4   RATE     750.000    
 BOUNDARY      5   LAYER   1   ROW     1   COL     5   RATE     750.000    
 BOUNDARY      6   LAYER   1   ROW     1   COL     6   RATE     750.000    
 BOUNDARY      7   LAYER   1   ROW     1   COL     7   RATE     750.000    
 BOUNDARY      8   LAYER   1   ROW     1   COL     8   RATE     750.000    
 BOUNDARY      9   LAYER   1   ROW     1   COL     9   RATE     750.000    
 BOUNDARY     10   LAYER   1   ROW     1   COL    10   RATE     750.000    
 BOUNDARY     11   LAYER   1   ROW     1   COL    11   RATE     750.000    
 BOUNDARY     12   LAYER   1   ROW     1   COL    12   RATE     750.000    
 BOUNDARY     13   LAYER   1   ROW     1   COL    13   RATE     750.000    
 BOUNDARY     14   LAYER   1   ROW     1   COL    14   RATE     750.000    
 BOUNDARY     15   LAYER   1   ROW     1   COL    15   RATE     750.000    
 BOUNDARY     16   LAYER   1   ROW     2   COL     1   RATE     750.000    
 BOUNDARY     17   LAYER   1   ROW     2   COL     2   RATE     750.000    
 BOUNDARY     18   LAYER   1   ROW     2   COL     3   RATE     750.000    
 BOUNDARY     19   LAYER   1   ROW     2   COL     4   RATE     750.000    
 BOUNDARY     20   LAYER   1   ROW     2   COL     5   RATE     750.000    
 BOUNDARY     21   LAYER   1   ROW     2   COL     6   RATE     750.000    
 BOUNDARY     22   LAYER   1   ROW     2   COL     7   RATE     750.000    
 BOUNDARY     23   LAYER   1   ROW     2   COL     8   RATE     750.000    
 BOUNDARY     24   LAYER   1   ROW     2   COL     9   RATE     750.000    
 BOUNDARY     25   LAYER   1   ROW     2   COL    10   RATE     750.000    
 BOUNDARY     26   LAYER   1   ROW     2   COL    11   RATE     750.000    
 BOUNDARY     27   LAYER   1   ROW     2   COL    12   RATE     750.000    
 BOUNDARY     28   LAYER   1   ROW     2   COL    13   RATE     750.000    
 BOUNDARY     29   LAYER   1   ROW     2   COL    14   RATE     750.000    
 BOUNDARY     30   LAYER   1   ROW     2   COL    15   RATE     750.000    
 BOUNDARY     31   LAYER   1   ROW     3   COL     1   RATE     750.000    
 BOUNDARY     32   LAYER   1   ROW     3   COL     2   RATE     750.000    
 BOUNDARY     33   LAYER   1   ROW     3   COL     3   RATE     750.000    
 BOUNDARY     34   LAYER   1   ROW     3   COL     4   RATE     750.000    
 BOUNDARY     35   LAYER   1   ROW     3   COL     5   RATE     750.000    
 BOUNDARY     36   LAYER   1   ROW     3   COL     6   RATE     750.000    
 BOUNDARY     37   LAYER   1   ROW     3   COL     7   RATE     750.000    
 BOUNDARY     38   LAYER   1   ROW     3   COL     8   RATE     750.000    
 BOUNDARY     39   LAYER   1   ROW     3   COL     9   RATE     750.000    
 BOUNDARY     40   LAYER   1   ROW     3   COL    10   RATE     750.000    
 BOUNDARY     41   LAYER   1   ROW     3   COL    11   RATE     750.000    
 BOUNDARY     42   LAYER   1   ROW     3   COL    12   RATE     750.000    
 BOUNDARY     43   LAYER   1   ROW     3   COL    13   RATE     750.000    
 BOUNDARY     44   LAYER   1   ROW     3   COL    14   RATE     750.000    
 BOUNDARY     45   LAYER   1   ROW     3   COL    15   RATE     750.000    
 BOUNDARY     46   LAYER   1   ROW     4   COL     1   RATE     750.000    
 BOUNDARY     47   LAYER   1   ROW     4   COL     2   RATE     750.000    
 BOUNDARY     48   LAYER   1   ROW     4   COL     3   RATE     750.000    
 BOUNDARY     49   LAYER   1   ROW     4   COL     4   RATE     750.000    
 BOUNDARY     50   LAYER   1   ROW     4   COL     5   RATE     750.000    
 BOUNDARY     51   LAYER   1   ROW     4   COL     6   RATE     750.000    
 BOUNDARY     52   LAYER   1   ROW     4   COL     7   RATE     750.000    
 BOUNDARY     53   LAYER   1   ROW     4   COL     8   RATE     750.000    
 BOUNDARY     54   LAYER   1   ROW     4   COL     9   RATE     750.000    
 BOUNDARY     55   LAYER   1   ROW     4   COL    10   RATE     750.000    
 BOUNDARY     56   LAYER   1   ROW     4   COL    11   RATE     750.000    
 BOUNDARY     57   LAYER   1   ROW     4   COL    12   RATE     750.000    
 BOUNDARY     58   LAYER   1   ROW     4   COL    13   RATE     750.000    
 BOUNDARY     59   LAYER   1   ROW     4   COL    14   RATE     750.000    
 BOUNDARY     60   LAYER   1   ROW     4   COL    15   RATE     750.000    
 BOUNDARY     61   LAYER   1   ROW     5   COL     1   RATE     750.000    
 BOUNDARY     62   LAYER   1   ROW     5   COL     2   RATE     750.000    
 BOUNDARY     63   LAYER   1   ROW     5   COL     3   RATE     750.000    
 BOUNDARY     64   LAYER   1   ROW     5   COL     4   RATE     750.000    
 BOUNDARY     65   LAYER   1   ROW     5   COL     5   RATE     750.000    
 BOUNDARY     66   LAYER   1   ROW     5   COL     6   RATE     750.000    
 BOUNDARY     67   LAYER   1   ROW     5   COL     7   RATE     750.000    
 BOUNDARY     68   LAYER   1   ROW     5   COL     8   RATE     750.000    
 BOUNDARY     69   LAYER   1   ROW     5   COL     9   RATE     750.000    
 BOUNDARY     70   LAYER   1   ROW     5   COL    10   RATE     750.000    
 BOUNDARY     71   LAYER   1   ROW     5   COL    11   RATE     750.000    
 BOUNDARY     72   LAYER   1   ROW     5   COL    12   RATE     750.000    
 BOUNDARY     73   LAYER   1   ROW     5   COL    13   RATE     750.000    
 BOUNDARY     74   LAYER   1   ROW     5   COL    14   RATE     750.000    
 BOUNDARY     75   LAYER   1   ROW     5   COL    15   RATE     750.000    
 BOUNDARY     76   LAYER   1   ROW     6   COL     1   RATE     750.000    
 BOUNDARY     77   LAYER   1   ROW     6   COL     2   RATE     750.000    
 BOUNDARY     78   LAYER   1   ROW     6   COL     3   RATE     750.000    
 BOUNDARY     79   LAYER   1   ROW     6   COL     4   RATE     750.000    
 BOUNDARY     80   LAYER   1   ROW     6   COL     5   RATE     750.000    
 BOUNDARY     81   LAYER   1   ROW     6   COL     6   RATE     750.000    
 BOUNDARY     82   LAYER   1   ROW     6   COL     7   RATE     750.000    
 BOUNDARY     83   LAYER   1   ROW     6   COL     8   RATE     750.000    
 BOUNDARY     84   LAYER   1   ROW     6   COL     9   RATE     750.000    
 BOUNDARY     85   LAYER   1   ROW     6   COL    10   RATE     750.000    
 BOUNDARY     86   LAYER   1   ROW     6   COL    11   RATE     750.000    
 BOUNDARY     87   LAYER   1   ROW     6   COL    12   RATE     750.000    
 BOUNDARY     88   LAYER   1   ROW     6   COL    13   RATE     750.000    
 BOUNDARY     89   LAYER   1   ROW     6   COL    14   RATE     750.000    
 BOUNDARY     90   LAYER   1   ROW     6   COL    15   RATE     750.000    
 BOUNDARY     91   LAYER   1   ROW     7   COL     1   RATE     750.000    
 BOUNDARY     92   LAYER   1   ROW     7   COL     2   RATE     750.000    
 BOUNDARY     93   LAYER   1   ROW     7   COL     3   RATE     750.000    
 BOUNDARY     94   LAYER   1   ROW     7   COL     4   RATE     750.000    
 BOUNDARY     95   LAYER   1   ROW     7   COL     5   RATE     750.000    
 BOUNDARY     96   LAYER   1   ROW     7   COL     6   RATE     750.000    
 BOUNDARY     97   LAYER   1   ROW     7   COL     7   RATE     750.000    
 BOUNDARY     98   LAYER   1   ROW     7   COL     8   RATE     750.000    
 BOUNDARY     99   LAYER   1   ROW     7   COL     9   RATE     750.000    
 BOUNDARY    100   LAYER   1   ROW     7   COL    10   RATE     750.000    
 BOUNDARY    101   LAYER   1   ROW     7   COL    11   RATE     750.000    
 BOUNDARY    102   LAYER   1   ROW     7   COL    12   RATE     750.000    
 BOUNDARY    103   LAYER   1   ROW     7   COL    13   RATE     750.000    
 BOUNDARY    104   LAYER   1   ROW     7   COL    14   RATE     750.000    
 BOUNDARY    105   LAYER   1   ROW     7   COL    15   RATE     750.000    
 BOUNDARY    106   LAYER   1   ROW     8   COL     1   RATE     750.000    
 BOUNDARY    107   LAYER   1   ROW     8   COL     2   RATE     750.000    
 BOUNDARY    108   LAYER   1   ROW     8   COL     3   RATE     750.000    
 BOUNDARY    109   LAYER   1   ROW     8   COL     4   RATE     750.000    
 BOUNDARY    110   LAYER   1   ROW     8   COL     5   RATE     750.000    
 BOUNDARY    111   LAYER   1   ROW     8   COL     6   RATE     750.000    
 BOUNDARY    112   LAYER   1   ROW     8   COL     7   RATE     750.000    
 BOUNDARY    113   LAYER   1   ROW     8   COL     8   RATE     750.000    
 BOUNDARY    114   LAYER   1   ROW     8   COL     9   RATE     750.000    
 BOUNDARY    115   LAYER   1   ROW     8   COL    10   RATE     750.000    
 BOUNDARY    116   LAYER   1   ROW     8   COL    11   RATE     750.000    
 BOUNDARY    117   LAYER   1   ROW     8   COL    12   RATE     750.000    
 BOUNDARY    118   LAYER   1   ROW     8   COL    13   RATE     750.000    
 BOUNDARY    119   LAYER   1   ROW     8   COL    14   RATE     750.000    
 BOUNDARY    120   LAYER   1   ROW     8   COL    15   RATE     750.000    
 BOUNDARY    121   LAYER   1   ROW     9   COL     1   RATE     750.000    
 BOUNDARY    122   LAYER   1   ROW     9   COL     2   RATE     750.000    
 BOUNDARY    123   LAYER   1   ROW     9   COL     3   RATE     750.000    
 BOUNDARY    124   LAYER   1   ROW     9   COL     4   RATE     750.000    
 BOUNDARY    125   LAYER   1   ROW     9   COL     5   RATE     750.000    
 BOUNDARY    126   LAYER   1   ROW     9   COL     6   RATE     750.000    
 BOUNDARY    127   LAYER   1   ROW     9   COL     7   RATE     750.000    
 BOUNDARY    128   LAYER   1   ROW     9   COL     8   RATE     750.000    
 BOUNDARY    129   LAYER   1   ROW     9   COL     9   RATE     750.000    
 BOUNDARY    130   LAYER   1   ROW     9   COL    10   RATE     750.000    
 BOUNDARY    131   LAYER   1   ROW     9   COL    11   RATE     750.000    
 BOUNDARY    132   LAYER   1   ROW     9   COL    12   RATE     750.000    
 BOUNDARY    133   LAYER   1   ROW     9   COL    13   RATE     750.000    
 BOUNDARY    134   LAYER   1   ROW     9   COL    14   RATE     750.000    
 BOUNDARY    135   LAYER   1   ROW     9   COL    15   RATE     750.000    
 BOUNDARY    136   LAYER   1   ROW    10   COL     1   RATE     750.000    
 BOUNDARY    137   LAYER   1   ROW    10   COL     2   RATE     750.000    
 BOUNDARY    138   LAYER   1   ROW    10   COL     3   RATE     750.000    
 BOUNDARY    139   LAYER   1   ROW    10   COL     4   RATE     750.000    
 BOUNDARY    140   LAYER   1   ROW    10   COL     5   RATE     750.000    
 BOUNDARY    141   LAYER   1   ROW    10   COL     6   RATE     750.000    
 BOUNDARY    142   LAYER   1   ROW    10   COL     7   RATE     750.000    
 BOUNDARY    143   LAYER   1   ROW    10   COL     8   RATE     750.000    
 BOUNDARY    144   LAYER   1   ROW    10   COL     9   RATE     750.000    
 BOUNDARY    145   LAYER   1   ROW    10   COL    10   RATE     750.000    
 BOUNDARY    146   LAYER   1   ROW    10   COL    11   RATE     750.000    
 BOUNDARY    147   LAYER   1   ROW    10   COL    12   RATE     750.000    
 BOUNDARY    148   LAYER   1   ROW    10   COL    13   RATE     750.000    
 BOUNDARY    149   LAYER   1   ROW    10   COL    14   RATE     750.000    
 BOUNDARY    150   LAYER   1   ROW    10   COL    15   RATE     750.000    
 UBDSV4 SAVING ET SEGS          ON UNIT   1016 AT TIME STEP      7, STRESS PERIOD      5

 ET SEGS            PERIOD  5   STEP  7
 BOUNDARY      1   LAYER   1   ROW     1   COL     1   RATE    -2.89477    
 BOUNDARY      2   LAYER   1   ROW     1   COL     2   RATE    -9.75050    
 BOUNDARY      3   LAYER   1   ROW     1   COL     3   RATE    -62.0001    
 BOUNDARY      4   LAYER   1   ROW     1   COL     4   RATE   -100.0000    
 BOUNDARY      5   LAYER   1   ROW     1   COL     5   RATE   -100.0000    
 BOUNDARY      6   LAYER   1   ROW     1   COL     6   RATE   -100.0000    
 BOUNDARY      7   LAYER   1   ROW     1   COL     7   RATE   -100.0000    
 BOUNDARY      8   LAYER   1   ROW     1   COL     8   RATE   -100.0000    
 BOUNDARY      9   LAYER   1   ROW     1   COL     9   RATE   -100.0000    
 BOUNDARY     10   LAYER   1   ROW     1   COL    10   RATE   -100.0000    
 BOUNDARY     11   LAYER   1   ROW     1   COL    11   RATE   -100.0000    
 BOUNDARY     12   LAYER   1   ROW     1   COL    12   RATE    -19.3803    
 BOUNDARY     13   LAYER   1   ROW     1   COL    13   RATE     0.00000    
 BOUNDARY     14   LAYER   1   ROW     1   COL    14   RATE     0.00000    
 BOUNDARY     15   LAYER   1   ROW     1   COL    15   RATE     0.00000    
 BOUNDARY     16   LAYER   1   ROW     2   COL     1   RATE     0.00000    
 BOUNDARY     17   LAYER   1   ROW     2   COL     2   RATE    -5.21853    
 BOUNDARY     18   LAYER   1   ROW     2   COL     3   RATE    -33.8429    
 BOUNDARY     19   LAYER   1   ROW     2   COL     4   RATE   -100.0000    
 BOUNDARY     20   LAYER   1   ROW     2   COL     5   RATE   -100.0000    
 BOUNDARY     21   LAYER   1   ROW     2   COL     6   RATE   -100.0000    
 BOUNDARY     22   LAYER   1   ROW     2   COL     7   RATE   -100.0000    
 BOUNDARY     23   LAYER   1   ROW     2   COL     8   RATE   -100.0000    
 BOUNDARY     24   LAYER   1   ROW     2   COL     9   RATE   -100.0000    
 BOUNDARY     25   LAYER   1   ROW     2   COL    10   RATE   -100.0000    
 BOUNDARY     26   LAYER   1   ROW     2   COL    11   RATE   -100.0000    
 BOUNDARY     27   LAYER   1   ROW     2   COL    12   RATE    -21.1224    
 BOUNDARY     28   LAYER   1   ROW     2   COL    13   RATE   -0.885523    
 BOUNDARY     29   LAYER   1   ROW     2   COL    14   RATE     0.00000    
 BOUNDARY     30   LAYER   1   ROW     2   COL    15   RATE     0.00000    
 BOUNDARY     31   LAYER   1   ROW     3   COL     1   RATE     0.00000    
 BOUNDARY     32   LAYER   1   ROW     3   COL     2   RATE     0.00000    
 BOUNDARY     33   LAYER   1   ROW     3   COL     3   RATE    -24.7555    
 BOUNDARY     34   LAYER   1   ROW     3   COL     4   RATE   -100.0000    
 BOUNDARY     35   LAYER   1   ROW     3   COL     5   RATE   -100.0000    
 BOUNDARY     36   LAYER   1   ROW     3   COL     6   RATE   -100.0000    
 BOUNDARY     37   LAYER   1   ROW     3   COL     7   RATE   -100.0000    
 BOUNDARY     38   LAYER   1   ROW     3   COL     8   RATE   -100.0000    
 BOUNDARY     39   LAYER   1   ROW     3   COL     9   RATE   -100.0000    
 BOUNDARY     40   LAYER   1   ROW     3   COL    10   RATE   -100.0000    
 BOUNDARY     41   LAYER   1   ROW     3   COL    11   RATE   -100.0000    
 BOUNDARY     42   LAYER   1   ROW     3   COL    12   RATE    -24.0588    
 BOUNDARY     43   LAYER   1   ROW     3   COL    13   RATE    -2.67983    
 BOUNDARY     44   LAYER   1   ROW     3   COL    14   RATE     0.00000    
 BOUNDARY     45   LAYER   1   ROW     3   COL    15   RATE     0.00000    
 BOUNDARY     46   LAYER   1   ROW     4   COL     1   RATE     0.00000    
 BOUNDARY     47   LAYER   1   ROW     4   COL     2   RATE    -3.71095    
 BOUNDARY     48   LAYER   1   ROW     4   COL     3   RATE    -28.6541    
 BOUNDARY     49   LAYER   1   ROW     4   COL     4   RATE   -100.0000    
 BOUNDARY     50   LAYER   1   ROW     4   COL     5   RATE   -100.0000    
 BOUNDARY     51   LAYER   1   ROW     4   COL     6   RATE   -100.0000    
 BOUNDARY     52   LAYER   1   ROW     4   COL     7   RATE   -100.0000    
 BOUNDARY     53   LAYER   1   ROW     4   COL     8   RATE   -100.0000    
 BOUNDARY     54   LAYER   1   ROW     4   COL     9   RATE   -100.0000    
 BOUNDARY     55   LAYER   1   ROW     4   COL    10   RATE   -100.0000    
 BOUNDARY     56   LAYER   1   ROW     4   COL    11   RATE   -100.0000    
 BOUNDARY     57   LAYER   1   ROW     4   COL    12   RATE    -26.8447    
 BOUNDARY     58   LAYER   1   ROW     4   COL    13   RATE    -4.13055    
 BOUNDARY     59   LAYER   1   ROW     4   COL    14   RATE     0.00000    
 BOUNDARY     60   LAYER   1   ROW     4   COL    15   RATE     0.00000    
 BOUNDARY     61   LAYER   1   ROW     5   COL     1   RATE     0.00000    
 BOUNDARY     62   LAYER   1   ROW     5   COL     2   RATE    -6.69393    
 BOUNDARY     63   LAYER   1   ROW     5   COL     3   RATE    -43.7393    
 BOUNDARY     64   LAYER   1   ROW     5   COL     4   RATE   -100.0000    
 BOUNDARY     65   LAYER   1   ROW     5   COL     5   RATE   -100.0000    
 BOUNDARY     66   LAYER   1   ROW     5   COL     6   RATE   -100.0000    
 BOUNDARY     67   LAYER   1   ROW     5   COL     7   RATE   -100.0000    
 BOUNDARY     68   LAYER   1   ROW     5   COL     8   RATE   -100.0000    
 BOUNDARY     69   LAYER   1   ROW     5   COL     9   RATE   -100.0000    
 BOUNDARY     70   LAYER   1   ROW     5   COL    10   RATE   -100.0000    
 BOUNDARY     71   LAYER   1   ROW     5   COL    11   RATE   -100.0000    
 BOUNDARY     72   LAYER   1   ROW     5   COL    12   RATE    -28.7577    
 BOUNDARY     73   LAYER   1   ROW     5   COL    13   RATE    -5.01323    
 BOUNDARY     74   LAYER   1   ROW     5   COL    14   RATE     0.00000    
 BOUNDARY     75   LAYER   1   ROW     5   COL    15   RATE     0.00000    
 BOUNDARY     76   LAYER   1   ROW     6   COL     1   RATE     0.00000    
 BOUNDARY     77   LAYER   1   ROW     6   COL     2   RATE    -5.24770    
 BOUNDARY     78   LAYER   1   ROW     6   COL     3   RATE    -47.5087    
 BOUNDARY     79   LAYER   1   ROW     6   COL     4   RATE   -100.0000    
 BOUNDARY     80   LAYER   1   ROW     6   COL     5   RATE   -100.0000    
 BOUNDARY     81   LAYER   1   ROW     6   COL     6   RATE   -100.0000    
 BOUNDARY     82   LAYER   1   ROW     6   COL     7   RATE   -100.0000    
 BOUNDARY     83   LAYER   1   ROW     6   COL     8   RATE   -100.0000    
 BOUNDARY     84   LAYER   1   ROW     6   COL     9   RATE   -100.0000    
 BOUNDARY     85   LAYER   1   ROW     6   COL    10   RATE   -100.0000    
 BOUNDARY     86   LAYER   1   ROW     6   COL    11   RATE   -100.0000    
 BOUNDARY     87   LAYER   1   ROW     6   COL    12   RATE    -29.3998    
 BOUNDARY     88   LAYER   1   ROW     6   COL    13   RATE    -4.96402    
 BOUNDARY     89   LAYER   1   ROW     6   COL    14   RATE     0.00000    
 BOUNDARY     90   LAYER   1   ROW     6   COL    15   RATE     0.00000    
 BOUNDARY     91   LAYER   1   ROW     7   COL     1   RATE     0.00000    
 BOUNDARY     92   LAYER   1   ROW     7   COL     2   RATE    -1.70483    
 BOUNDARY     93   LAYER   1   ROW     7   COL     3   RATE    -54.3025    
 BOUNDARY     94   LAYER   1   ROW     7   COL     4   RATE   -100.0000    
 BOUNDARY     95   LAYER   1   ROW     7   COL     5   RATE   -100.0000    
 BOUNDARY     96   LAYER   1   ROW     7   COL     6   RATE   -100.0000    
 BOUNDARY     97   LAYER   1   ROW     7   COL     7   RATE   -100.0000    
 BOUNDARY     98   LAYER   1   ROW     7   COL     8   RATE   -100.0000    
 BOUNDARY     99   LAYER   1   ROW     7   COL     9   RATE   -100.0000    
 BOUNDARY    100   LAYER   1   ROW     7   COL    10   RATE   -100.0000    
 BOUNDARY    101   LAYER   1   ROW     7   COL    11   RATE   -100.0000    
 BOUNDARY    102   LAYER   1   ROW     7   COL    12   RATE    -29.2547    
 BOUNDARY    103   LAYER   1   ROW     7   COL    13   RATE    -4.24706    
 BOUNDARY    104   LAYER   1   ROW     7   COL    14   RATE     0.00000    
 BOUNDARY    105   LAYER   1   ROW     7   COL    15   RATE     0.00000    
 BOUNDARY    106   LAYER   1   ROW     8   COL     1   RATE     0.00000    
 BOUNDARY    107   LAYER   1   ROW     8   COL     2   RATE    -13.7063    
 BOUNDARY    108   LAYER   1   ROW     8   COL     3   RATE   -100.0000    
 BOUNDARY    109   LAYER   1   ROW     8   COL     4   RATE   -100.0000    
 BOUNDARY    110   LAYER   1   ROW     8   COL     5   RATE   -100.0000    
 BOUNDARY    111   LAYER   1   ROW     8   COL     6   RATE   -100.0000    
 BOUNDARY    112   LAYER   1   ROW     8   COL     7   RATE   -100.0000    
 BOUNDARY    113   LAYER   1   ROW     8   COL     8   RATE   -100.0000    
 BOUNDARY    114   LAYER   1   ROW     8   COL     9   RATE   -100.0000    
 BOUNDARY    115   LAYER   1   ROW     8   COL    10   RATE   -100.0000    
 BOUNDARY    116   LAYER   1   ROW     8   COL    11   RATE   -100.0000    
 BOUNDARY    117   LAYER   1   ROW     8   COL    12   RATE    -29.6737    
 BOUNDARY    118   LAYER   1   ROW     8   COL    13   RATE    -4.27973    
 BOUNDARY    119   LAYER   1   ROW     8   COL    14   RATE     0.00000    
 BOUNDARY    120   LAYER   1   ROW     8   COL    15   RATE     0.00000    
 BOUNDARY    121   LAYER   1   ROW     9   COL     1   RATE    -21.3083    
 BOUNDARY    122   LAYER   1   ROW     9   COL     2   RATE    -73.5409    
 BOUNDARY    123   LAYER   1   ROW     9   COL     3   RATE   -100.0000    
 BOUNDARY    124   LAYER   1   ROW     9   COL     4   RATE   -100.0000    
 BOUNDARY    125   LAYER   1   ROW     9   COL     5   RATE   -100.0000    
 BOUNDARY    126   LAYER   1   ROW     9   COL     6   RATE   -100.0000    
 BOUNDARY    127   LAYER   1   ROW     9   COL     7   RATE   -100.0000    
 BOUNDARY    128   LAYER   1   ROW     9   COL     8   RATE   -100.0000    
 BOUNDARY    129   LAYER   1   ROW     9   COL     9   RATE   -100.0000    
 BOUNDARY    130   LAYER   1   ROW     9   COL    10   RATE   -100.0000    
 BOUNDARY    131   LAYER   1   ROW     9   COL    11   RATE   -100.0000    
 BOUNDARY    132   LAYER   1   ROW     9   COL    12   RATE    -34.2261    
 BOUNDARY    133   LAYER   1   ROW     9   COL    13   RATE    -5.13995    
 BOUNDARY    134   LAYER   1   ROW     9   COL    14   RATE     0.00000    
 BOUNDARY    135   LAYER   1   ROW     9   COL    15   RATE     0.00000    
 BOUNDARY    136   LAYER   1   ROW    10   COL     1   RATE    -81.7238    
 BOUNDARY    137   LAYER   1   ROW    10   COL     2   RATE   -100.0000    
 BOUNDARY    138   LAYER   1   ROW    10   COL     3   RATE   -100.0000    
 BOUNDARY    139   LAYER   1   ROW    10   COL     4   RATE   -100.0000    
 BOUNDARY    140   LAYER   1   ROW    10   COL     5   RATE   -100.0000    
 BOUNDARY    141   LAYER   1   ROW    10   COL     6   RATE   -100.0000    
 BOUNDARY    142   LAYER   1   ROW    10   COL     7   RATE   -100.0000    
 BOUNDARY    143   LAYER   1   ROW    10   COL     8   RATE   -100.0000    
 BOUNDARY    144   LAYER   1   ROW    10   COL     9   RATE   -100.0000    
 BOUNDARY    145   LAYER   1   ROW    10   COL    10   RATE   -100.0000    
 BOUNDARY    146   LAYER   1   ROW    10   COL    11   RATE   -100.0000    
 BOUNDARY    147   LAYER   1   ROW    10   COL    12   RATE    -38.4560    
 BOUNDARY    148   LAYER   1   ROW    10   COL    13   RATE    -5.68787    
 BOUNDARY    149   LAYER   1   ROW    10   COL    14   RATE     0.00000    
 BOUNDARY    150   LAYER   1   ROW    10   COL    15   RATE     0.00000    

 HEAD WILL BE SAVED ON UNIT 1017 AT END OF TIME STEP    7, STRESS PERIOD    5
WEL   no.    1 value from time series:   0.0000     for time:  98.00     to  99.00    
WEL   no.    2 value from time series:   0.0000     for time:  98.00     to  99.00    
RIV   no.    1 value from time series:   101.00     for time:  98.00     to  99.00    
RIV   no.    2 value from time series:   101.00     for time:  98.00     to  99.00    
RIV   no.    3 value from time series:   111.50     for time:  98.00     to  99.00    
RIV   no.    4 value from time series:   111.50     for time:  98.00     to  99.00    
RIV   no.    5 value from time series:   115.10     for time:  98.00     to  99.00    
RIV   no.    6 value from time series:   115.10     for time:  98.00     to  99.00    
RIV   no.    7 value from time series:   104.00     for time:  98.00     to  99.00    
RIV   no.    8 value from time series:   104.00     for time:  98.00     to  99.00    
RIV   no.    9 value from time series:   113.50     for time:  98.00     to  99.00    
RIV   no.   10 value from time series:   113.50     for time:  98.00     to  99.00    
WEL   no.    1 value from time series:   0.0000     for time:  98.00     to  99.00    
WEL   no.    2 value from time series:   0.0000     for time:  98.00     to  99.00    
RIV   no.    1 value from time series:   101.00     for time:  98.00     to  99.00    
RIV   no.    2 value from time series:   101.00     for time:  98.00     to  99.00    
RIV   no.    3 value from time series:   111.50     for time:  98.00     to  99.00    
RIV   no.    4 value from time series:   111.50     for time:  98.00     to  99.00    
RIV   no.    5 value from time series:   115.10     for time:  98.00     to  99.00    
RIV   no.    6 value from time series:   115.10     for time:  98.00     to  99.00    
RIV   no.    7 value from time series:   104.00     for time:  98.00     to  99.00    
RIV   no.    8 value from time series:   104.00     for time:  98.00     to  99.00    
RIV   no.    9 value from time series:   113.50     for time:  98.00     to  99.00    
RIV   no.   10 value from time series:   113.50     for time:  98.00     to  99.00    

 OUTPUT CONTROL FOR STRESS PERIOD    5   TIME STEP    8
    SAVE BUDGET
    SAVE HEAD
    SAVE HEAD FOR ALL LAYERS
 UBDSV1 SAVING          STORAGE ON UNIT   1016 AT TIME STEP      8, STRESS PERIOD      5
 UBDSV1 SAVING FLOW RIGHT FACE  ON UNIT   1016 AT TIME STEP      8, STRESS PERIOD      5
 UBDSV1 SAVING FLOW FRONT FACE  ON UNIT   1016 AT TIME STEP      8, STRESS PERIOD      5
 UBDSV1 SAVING FLOW LOWER FACE  ON UNIT   1016 AT TIME STEP      8, STRESS PERIOD      5
 UBDSV4 SAVING WELLS NEAR RIVER ON UNIT   1016 AT TIME STEP      8, STRESS PERIOD      5

 WELLS NEAR RIVER   PERIOD  5   STEP  8
 BOUNDARY      1   LAYER   2   ROW     8   COL     4   RATE     0.00000      WELL_2
 BOUNDARY      2   LAYER   2   ROW     3   COL     4   RATE     0.00000      WELL_1
 UBDSV4 SAVING RIVER            ON UNIT   1016 AT TIME STEP      8, STRESS PERIOD      5

 RIVER              PERIOD  5   STEP  8
 BOUNDARY      1   LAYER   1   ROW     1   COL    15   RATE    -4896.08    
 BOUNDARY      2   LAYER   1   ROW     2   COL    15   RATE    -6020.63      RIV2
 BOUNDARY      3   LAYER   1   ROW     3   COL    15   RATE    -2286.75      RIV3
 BOUNDARY      4   LAYER   1   ROW     4   COL    15   RATE    -3750.24    
 BOUNDARY      5   LAYER   1   ROW     5   COL    15   RATE    -2388.18    
 BOUNDARY      6   LAYER   1   ROW     6   COL    15   RATE    -1735.88    
 BOUNDARY      7   LAYER   1   ROW     7   COL    15   RATE    -6218.27      RIVX
 BOUNDARY      8   LAYER   1   ROW     8   COL    15   RATE    -6066.50      RIVX
 BOUNDARY      9   LAYER   1   ROW     9   COL    15   RATE    -2276.21      RIVX
 BOUNDARY     10   LAYER   1   ROW    10   COL    15   RATE    -3181.19    

 GHB LAKES          PERIOD  5   STEP  8
 BOUNDARY      1   LAYER   1   ROW     3   COL     1   RATE    -14749.8    
 BOUNDARY      2   LAYER   1   ROW     7   COL     1   RATE    -2062.70      GHB2_UPPER
 BOUNDARY      3   LAYER   1   ROW     7   COL     1   RATE    -13314.5      GHB2_LOWER
 UBDSV4 SAVING RECHARGE         ON UNIT   1016 AT TIME STEP      8, STRESS PERIOD      5

 RECHARGE           PERIOD  5   STEP  8
 BOUNDARY      1   LAYER   1   ROW     1   COL     1   RATE     753.333    
 BOUNDARY      2   LAYER   1   ROW     1   COL     2   RATE     753.333    
 BOUNDARY      3   LAYER   1   ROW     1   COL     3   RATE     753.333    
 BOUNDARY      4   LAYER   1   ROW     1   COL     4   RATE     753.333    
 BOUNDARY      5   LAYER   1   ROW     1   COL     5   RATE     753.333    
 BOUNDARY      6   LAYER   1   ROW     1   COL     6   RATE     753.333    
 BOUNDARY      7   LAYER   1   ROW     1   COL     7   RATE     753.333    
 BOUNDARY      8   LAYER   1   ROW     1   COL     8   RATE     753.333    
 BOUNDARY      9   LAYER   1   ROW     1   COL     9   RATE     753.333    
 BOUNDARY     10   LAYER   1   ROW     1   COL    10   RATE     753.333    
 BOUNDARY     11   LAYER   1   ROW     1   COL    11   RATE     753.333    
 BOUNDARY     12   LAYER   1   ROW     1   COL    12   RATE     753.333    
 BOUNDARY     13   LAYER   1   ROW     1   COL    13   RATE     753.333    
 BOUNDARY     14   LAYER   1   ROW     1   COL    14   RATE     753.333    
 BOUNDARY     15   LAYER   1   ROW     1   COL    15   RATE     753.333    
 BOUNDARY     16   LAYER   1   ROW     2   COL     1   RATE     753.333    
 BOUNDARY     17   LAYER   1   ROW     2   COL     2   RATE     753.333    
 BOUNDARY     18   LAYER   1   ROW     2   COL     3   RATE     753.333    
 BOUNDARY     19   LAYER   1   ROW     2   COL     4   RATE     753.333    
 BOUNDARY     20   LAYER   1   ROW     2   COL     5   RATE     753.333    
 BOUNDARY     21   LAYER   1   ROW     2   COL     6   RATE     753.333    
 BOUNDARY     22   LAYER   1   ROW     2   COL     7   RATE     753.333    
 BOUNDARY     23   LAYER   1   ROW     2   COL     8   RATE     753.333    
 BOUNDARY     24   LAYER   1   ROW     2   COL     9   RATE     753.333    
 BOUNDARY     25   LAYER   1   ROW     2   COL    10   RATE     753.333    
 BOUNDARY     26   LAYER   1   ROW     2   COL    11   RATE     753.333    
 BOUNDARY     27   LAYER   1   ROW     2   COL    12   RATE     753.333    
 BOUNDARY     28   LAYER   1   ROW     2   COL    13   RATE     753.333    
 BOUNDARY     29   LAYER   1   ROW     2   COL    14   RATE     753.333    
 BOUNDARY     30   LAYER   1   ROW     2   COL    15   RATE     753.333    
 BOUNDARY     31   LAYER   1   ROW     3   COL     1   RATE     753.333    
 BOUNDARY     32   LAYER   1   ROW     3   COL     2   RATE     753.333    
 BOUNDARY     33   LAYER   1   ROW     3   COL     3   RATE     753.333    
 BOUNDARY     34   LAYER   1   ROW     3   COL     4   RATE     753.333    
 BOUNDARY     35   LAYER   1   ROW     3   COL     5   RATE     753.333    
 BOUNDARY     36   LAYER   1   ROW     3   COL     6   RATE     753.333    
 BOUNDARY     37   LAYER   1   ROW     3   COL     7   RATE     753.333    
 BOUNDARY     38   LAYER   1   ROW     3   COL     8   RATE     753.333    
 BOUNDARY     39   LAYER   1   ROW     3   COL     9   RATE     753.333    
 BOUNDARY     40   LAYER   1   ROW     3   COL    10   RATE     753.333    
 BOUNDARY     41   LAYER   1   ROW     3   COL    11   RATE     753.333    
 BOUNDARY     42   LAYER   1   ROW     3   COL    12   RATE     753.333    
 BOUNDARY     43   LAYER   1   ROW     3   COL    13   RATE     753.333    
 BOUNDARY     44   LAYER   1   ROW     3   COL    14   RATE     753.333    
 BOUNDARY     45   LAYER   1   ROW     3   COL    15   RATE     753.333    
 BOUNDARY     46   LAYER   1   ROW     4   COL     1   RATE     753.333    
 BOUNDARY     47   LAYER   1   ROW     4   COL     2   RATE     753.333    
 BOUNDARY     48   LAYER   1   ROW     4   COL     3   RATE     753.333    
 BOUNDARY     49   LAYER   1   ROW     4   COL     4   RATE     753.333    
 BOUNDARY     50   LAYER   1   ROW     4   COL     5   RATE     753.333    
 BOUNDARY     51   LAYER   1   ROW     4   COL     6   RATE     753.333    
 BOUNDARY     52   LAYER   1   ROW     4   COL     7   RATE     753.333    
 BOUNDARY     53   LAYER   1   ROW     4   COL     8   RATE     753.333    
 BOUNDARY     54   LAYER   1   ROW     4   COL     9   RATE     753.333    
 BOUNDARY     55   LAYER   1   ROW     4   COL    10   RATE     753.333    
 BOUNDARY     56   LAYER   1   ROW     4   COL    11   RATE     753.333    
 BOUNDARY     57   LAYER   1   ROW     4   COL    12   RATE     753.333    
 BOUNDARY     58   LAYER   1   ROW     4   COL    13   RATE     753.333    
 BOUNDARY     59   LAYER   1   ROW     4   COL    14   RATE     753.333    
 BOUNDARY     60   LAYER   1   ROW     4   COL    15   RATE     753.333    
 BOUNDARY     61   LAYER   1   ROW     5   COL     1   RATE     753.333    
 BOUNDARY     62   LAYER   1   ROW     5   COL     2   RATE     753.333    
 BOUNDARY     63   LAYER   1   ROW     5   COL     3   RATE     753.333    
 BOUNDARY     64   LAYER   1   ROW     5   COL     4   RATE     753.333    
 BOUNDARY     65   LAYER   1   ROW     5   COL     5   RATE     753.333    
 BOUNDARY     66   LAYER   1   ROW     5   COL     6   RATE     753.333    
 BOUNDARY     67   LAYER   1   ROW     5   COL     7   RATE     753.333    
 BOUNDARY     68   LAYER   1   ROW     5   COL     8   RATE     753.333    
 BOUNDARY     69   LAYER   1   ROW     5   COL     9   RATE     753.333    
 BOUNDARY     70   LAYER   1   ROW     5   COL    10   RATE     753.333    
 BOUNDARY     71   LAYER   1   ROW     5   COL    11   RATE     753.333    
 BOUNDARY     72   LAYER   1   ROW     5   COL    12   RATE     753.333    
 BOUNDARY     73   LAYER   1   ROW     5   COL    13   RATE     753.333    
 BOUNDARY     74   LAYER   1   ROW     5   COL    14   RATE     753.333    
 BOUNDARY     75   LAYER   1   ROW     5   COL    15   RATE     753.333    
 BOUNDARY     76   LAYER   1   ROW     6   COL     1   RATE     753.333    
 BOUNDARY     77   LAYER   1   ROW     6   COL     2   RATE     753.333    
 BOUNDARY     78   LAYER   1   ROW     6   COL     3   RATE     753.333    
 BOUNDARY     79   LAYER   1   ROW     6   COL     4   RATE     753.333    
 BOUNDARY     80   LAYER   1   ROW     6   COL     5   RATE     753.333    
 BOUNDARY     81   LAYER   1   ROW     6   COL     6   RATE     753.333    
 BOUNDARY     82   LAYER   1   ROW     6   COL     7   RATE     753.333    
 BOUNDARY     83   LAYER   1   ROW     6   COL     8   RATE     753.333    
 BOUNDARY     84   LAYER   1   ROW     6   COL     9   RATE     753.333    
 BOUNDARY     85   LAYER   1   ROW     6   COL    10   RATE     753.333    
 BOUNDARY     86   LAYER   1   ROW     6   COL    11   RATE     753.333    
 BOUNDARY     87   LAYER   1   ROW     6   COL    12   RATE     753.333    
 BOUNDARY     88   LAYER   1   ROW     6   COL    13   RATE     753.333    
 BOUNDARY     89   LAYER   1   ROW     6   COL    14   RATE     753.333    
 BOUNDARY     90   LAYER   1   ROW     6   COL    15   RATE     753.333    
 BOUNDARY     91   LAYER   1   ROW     7   COL     1   RATE     753.333    
 BOUNDARY     92   LAYER   1   ROW     7   COL     2   RATE     753.333    
 BOUNDARY     93   LAYER   1   ROW     7   COL     3   RATE     753.333    
 BOUNDARY     94   LAYER   1   ROW     7   COL     4   RATE     753.333    
 BOUNDARY     95   LAYER   1   ROW     7   COL     5   RATE     753.333    
 BOUNDARY     96   LAYER   1   ROW     7   COL     6   RATE     753.333    
 BOUNDARY     97   LAYER   1   ROW     7   COL     7   RATE     753.333    
 BOUNDARY     98   LAYER   1   ROW     7   COL     8   RATE     753.333    
 BOUNDARY     99   LAYER   1   ROW     7   COL     9   RATE     753.333    
 BOUNDARY    100   LAYER   1   ROW     7   COL    10   RATE     753.333    
 BOUNDARY    101   LAYER   1   ROW     7   COL    11   RATE     753.333    
 BOUNDARY    102   LAYER   1   ROW     7   COL    12   RATE     753.333    
 BOUNDARY    103   LAYER   1   ROW     7   COL    13   RATE     753.333    
 BOUNDARY    104   LAYER   1   ROW     7   COL    14   RATE     753.333    
 BOUNDARY    105   LAYER   1   ROW     7   COL    15   RATE     753.333    
 BOUNDARY    106   LAYER   1   ROW     8   COL     1   RATE     753.333    
 BOUNDARY    107   LAYER   1   ROW     8   COL     2   RATE     753.333    
 BOUNDARY    108   LAYER   1   ROW     8   COL     3   RATE     753.333    
 BOUNDARY    109   LAYER   1   ROW     8   COL     4   RATE     753.333    
 BOUNDARY    110   LAYER   1   ROW     8   COL     5   RATE     753.333    
 BOUNDARY    111   LAYER   1   ROW     8   COL     6   RATE     753.333    
 BOUNDARY    112   LAYER   1   ROW     8   COL     7   RATE     753.333    
 BOUNDARY    113   LAYER   1   ROW     8   COL     8   RATE     753.333    
 BOUNDARY    114   LAYER   1   ROW     8   COL     9   RATE     753.333    
 BOUNDARY    115   LAYER   1   ROW     8   COL    10   RATE     753.333    
 BOUNDARY    116   LAYER   1   ROW     8   COL    11   RATE     753.333    
 BOUNDARY    117   LAYER   1   ROW     8   COL    12   RATE     753.333    
 BOUNDARY    118   LAYER   1   ROW     8   COL    13   RATE     753.333    
 BOUNDARY    119   LAYER   1   ROW     8   COL    14   RATE     753.333    
 BOUNDARY    120   LAYER   1   ROW     8   COL    15   RATE     753.333    
 BOUNDARY    121   LAYER   1   ROW     9   COL     1   RATE     753.333    
 BOUNDARY    122   LAYER   1   ROW     9   COL     2   RATE     753.333    
 BOUNDARY    123   LAYER   1   ROW     9   COL     3   RATE     753.333    
 BOUNDARY    124   LAYER   1   ROW     9   COL     4   RATE     753.333    
 BOUNDARY    125   LAYER   1   ROW     9   COL     5   RATE     753.333    
 BOUNDARY    126   LAYER   1   ROW     9   COL     6   RATE     753.333    
 BOUNDARY    127   LAYER   1   ROW     9   COL     7   RATE     753.333    
 BOUNDARY    128   LAYER   1   ROW     9   COL     8   RATE     753.333    
 BOUNDARY    129   LAYER   1   ROW     9   COL     9   RATE     753.333    
 BOUNDARY    130   LAYER   1   ROW     9   COL    10   RATE     753.333    
 BOUNDARY    131   LAYER   1   ROW     9   COL    11   RATE     753.333    
 BOUNDARY    132   LAYER   1   ROW     9   COL    12   RATE     753.333    
 BOUNDARY    133   LAYER   1   ROW     9   COL    13   RATE     753.333    
 BOUNDARY    134   LAYER   1   ROW     9   COL    14   RATE     753.333    
 BOUNDARY    135   LAYER   1   ROW     9   COL    15   RATE     753.333    
 BOUNDARY    136   LAYER   1   ROW    10   COL     1   RATE     753.333    
 BOUNDARY    137   LAYER   1   ROW    10   COL     2   RATE     753.333    
 BOUNDARY    138   LAYER   1   ROW    10   COL     3   RATE     753.333    
 BOUNDARY    139   LAYER   1   ROW    10   COL     4   RATE     753.333    
 BOUNDARY    140   LAYER   1   ROW    10   COL     5   RATE     753.333    
 BOUNDARY    141   LAYER   1   ROW    10   COL     6   RATE     753.333    
 BOUNDARY    142   LAYER   1   ROW    10   COL     7   RATE     753.333    
 BOUNDARY    143   LAYER   1   ROW    10   COL     8   RATE     753.333    
 BOUNDARY    144   LAYER   1   ROW    10   COL     9   RATE     753.333    
 BOUNDARY    145   LAYER   1   ROW    10   COL    10   RATE     753.333    
 BOUNDARY    146   LAYER   1   ROW    10   COL    11   RATE     753.333    
 BOUNDARY    147   LAYER   1   ROW    10   COL    12   RATE     753.333    
 BOUNDARY    148   LAYER   1   ROW    10   COL    13   RATE     753.333    
 BOUNDARY    149   LAYER   1   ROW    10   COL    14   RATE     753.333    
 BOUNDARY    150   LAYER   1   ROW    10   COL    15   RATE     753.333    
 UBDSV4 SAVING ET SEGS          ON UNIT   1016 AT TIME STEP      8, STRESS PERIOD      5

 ET SEGS            PERIOD  5   STEP  8
 BOUNDARY      1   LAYER   1   ROW     1   COL     1   RATE    -2.91385    
 BOUNDARY      2   LAYER   1   ROW     1   COL     2   RATE    -9.76983    
 BOUNDARY      3   LAYER   1   ROW     1   COL     3   RATE    -62.3376    
 BOUNDARY      4   LAYER   1   ROW     1   COL     4   RATE   -100.0000    
 BOUNDARY      5   LAYER   1   ROW     1   COL     5   RATE   -100.0000    
 BOUNDARY      6   LAYER   1   ROW     1   COL     6   RATE   -100.0000    
 BOUNDARY      7   LAYER   1   ROW     1   COL     7   RATE   -100.0000    
 BOUNDARY      8   LAYER   1   ROW     1   COL     8   RATE   -100.0000    
 BOUNDARY      9   LAYER   1   ROW     1   COL     9   RATE   -100.0000    
 BOUNDARY     10   LAYER   1   ROW     1   COL    10   RATE   -100.0000    
 BOUNDARY     11   LAYER   1   ROW     1   COL    11   RATE   -100.0000    
 BOUNDARY     12   LAYER   1   ROW     1   COL    12   RATE    -19.4462    
 BOUNDARY     13   LAYER   1   ROW     1   COL    13   RATE     0.00000    
 BOUNDARY     14   LAYER   1   ROW     1   COL    14   RATE     0.00000    
 BOUNDARY     15   LAYER   1   ROW     1   COL    15   RATE     0.00000    
 BOUNDARY     16   LAYER   1   ROW     2   COL     1   RATE     0.00000    
 BOUNDARY     17   LAYER   1   ROW     2   COL     2   RATE    -5.23756    
 BOUNDARY     18   LAYER   1   ROW     2   COL     3   RATE    -34.1857    
 BOUNDARY     19   LAYER   1   ROW     2   COL     4   RATE   -100.0000    
 BOUNDARY     20   LAYER   1   ROW     2   COL     5   RATE   -100.0000    
 BOUNDARY     21   LAYER   1   ROW     2   COL     6   RATE   -100.0000    
 BOUNDARY     22   LAYER   1   ROW     2   COL     7   RATE   -100.0000    
 BOUNDARY     23   LAYER   1   ROW     2   COL     8   RATE   -100.0000    
 BOUNDARY     24   LAYER   1   ROW     2   COL     9   RATE   -100.0000    
 BOUNDARY     25   LAYER   1   ROW     2   COL    10   RATE   -100.0000    
 BOUNDARY     26   LAYER   1   ROW     2   COL    11   RATE   -100.0000    
 BOUNDARY     27   LAYER   1   ROW     2   COL    12   RATE    -21.1884    
 BOUNDARY     28   LAYER   1   ROW     2   COL    13   RATE   -0.904756    
 BOUNDARY     29   LAYER   1   ROW     2   COL    14   RATE     0.00000    
 BOUNDARY     30   LAYER   1   ROW     2   COL    15   RATE     0.00000    
 BOUNDARY     31   LAYER   1   ROW     3   COL     1   RATE     0.00000    
 BOUNDARY     32   LAYER   1   ROW     3   COL     2   RATE     0.00000    
 BOUNDARY     33   LAYER   1   ROW     3   COL     3   RATE    -24.8200    
 BOUNDARY     34   LAYER   1   ROW     3   COL     4   RATE   -100.0000    
 BOUNDARY     35   LAYER   1   ROW     3   COL     5   RATE   -100.0000    
 BOUNDARY     36   LAYER   1   ROW     3   COL     6   RATE   -100.0000    
 BOUNDARY     37   LAYER   1   ROW     3   COL     7   RATE   -100.0000    
 BOUNDARY     38   LAYER   1   ROW     3   COL     8   RATE   -100.0000    
 BOUNDARY     39   LAYER   1   ROW     3   COL     9   RATE   -100.0000    
 BOUNDARY     40   LAYER   1   ROW     3   COL    10   RATE   -100.0000    
 BOUNDARY     41   LAYER   1   ROW     3   COL    11   RATE   -100.0000    
 BOUNDARY     42   LAYER   1   ROW     3   COL    12   RATE    -24.1248    
 BOUNDARY     43   LAYER   1   ROW     3   COL    13   RATE    -2.69911    
 BOUNDARY     44   LAYER   1   ROW     3   COL    14   RATE     0.00000    
 BOUNDARY     45   LAYER   1   ROW     3   COL    15   RATE     0.00000    
 BOUNDARY     46   LAYER   1   ROW     4   COL     1   RATE     0.00000    
 BOUNDARY     47   LAYER   1   ROW     4   COL     2   RATE    -3.72981    
 BOUNDARY     48   LAYER   1   ROW     4   COL     3   RATE    -28.7187    
 BOUNDARY     49   LAYER   1   ROW     4   COL     4   RATE   -100.0000    
 BOUNDARY     50   LAYER   1   ROW     4   COL     5   RATE   -100.0000    
 BOUNDARY     51   LAYER   1   ROW     4   COL     6   RATE   -100.0000    
 BOUNDARY     52   LAYER   1   ROW     4   COL     7   RATE   -100.0000    
 BOUNDARY     53   LAYER   1   ROW     4   COL     8   RATE   -100.0000    
 BOUNDARY     54   LAYER   1   ROW     4   COL     9   RATE   -100.0000    
 BOUNDARY     55   LAYER   1   ROW     4   COL    10   RATE   -100.0000    
 BOUNDARY     56   LAYER   1   ROW     4   COL    11   RATE   -100.0000    
 BOUNDARY     57   LAYER   1   ROW     4   COL    12   RATE    -26.9105    
 BOUNDARY     58   LAYER   1   ROW     4   COL    13   RATE    -4.14971    
 BOUNDARY     59   LAYER   1   ROW     4   COL    14   RATE     0.00000    
 BOUNDARY     60   LAYER   1   ROW     4   COL    15   RATE     0.00000    
 BOUNDARY     61   LAYER   1   ROW     5   COL     1   RATE     0.00000    
 BOUNDARY     62   LAYER   1   ROW     5   COL     2   RATE    -6.71305    
 BOUNDARY     63   LAYER   1   ROW     5   COL     3   RATE    -44.0736    
 BOUNDARY     64   LAYER   1   ROW     5   COL     4   RATE   -100.0000    
 BOUNDARY     65   LAYER   1   ROW     5   COL     5   RATE   -100.0000    
 BOUNDARY     66   LAYER   1   ROW     5   COL     6   RATE   -100.0000    
 BOUNDARY     67   LAYER   1   ROW     5   COL     7   RATE   -100.0000    
 BOUNDARY     68   LAYER   1   ROW     5   COL     8   RATE   -100.0000    
 BOUNDARY     69   LAYER   1   ROW     5   COL     9   RATE   -100.0000    
 BOUNDARY     70   LAYER   1   ROW     5   COL    10   RATE   -100.0000    
 BOUNDARY     71   LAYER   1   ROW     5   COL    11   RATE   -100.0000    
 BOUNDARY     72   LAYER   1   ROW     5   COL    12   RATE    -28.8231    
 BOUNDARY     73   LAYER   1   ROW     5   COL    13   RATE    -5.03216    
 BOUNDARY     74   LAYER   1   ROW     5   COL    14   RATE     0.00000    
 BOUNDARY     75   LAYER   1   ROW     5   COL    15   RATE     0.00000    
 BOUNDARY     76   LAYER   1   ROW     6   COL     1   RATE     0.00000    
 BOUNDARY     77   LAYER   1   ROW     6   COL     2   RATE    -5.26636    
 BOUNDARY     78   LAYER   1   ROW     6   COL     3   RATE    -47.8403    
 BOUNDARY     79   LAYER   1   ROW     6   COL     4   RATE   -100.0000    
 BOUNDARY     80   LAYER   1   ROW     6   COL     5   RATE   -100.0000    
 BOUNDARY     81   LAYER   1   ROW     6   COL     6   RATE   -100.0000    
 BOUNDARY     82   LAYER   1   ROW     6   COL     7   RATE   -100.0000    
 BOUNDARY     83   LAYER   1   ROW     6   COL     8   RATE   -100.0000    
 BOUNDARY     84   LAYER   1   ROW     6   COL     9   RATE   -100.0000    
 BOUNDARY     85   LAYER   1   ROW     6   COL    10   RATE   -100.0000    
 BOUNDARY     86   LAYER   1   ROW     6   COL    11   RATE   -100.0000    
 BOUNDARY     87   LAYER   1   ROW     6   COL    12   RATE    -29.4651    
 BOUNDARY     88   LAYER   1   ROW     6   COL    13   RATE    -4.98286    
 BOUNDARY     89   LAYER   1   ROW     6   COL    14   RATE     0.00000    
 BOUNDARY     90   LAYER   1   ROW     6   COL    15   RATE     0.00000    
 BOUNDARY     91   LAYER   1   ROW     7   COL     1   RATE     0.00000    
 BOUNDARY     92   LAYER   1   ROW     7   COL     2   RATE    -1.72228    
 BOUNDARY     93   LAYER   1   ROW     7   COL     3   RATE    -54.6320    
 BOUNDARY     94   LAYER   1   ROW     7   COL     4   RATE   -100.0000    
 BOUNDARY     95   LAYER   1   ROW     7   COL     5   RATE   -100.0000    
 BOUNDARY     96   LAYER   1   ROW     7   COL     6   RATE   -100.0000    
 BOUNDARY     97   LAYER   1   ROW     7   COL     7   RATE   -100.0000    
 BOUNDARY     98   LAYER   1   ROW     7   COL     8   RATE   -100.0000    
 BOUNDARY     99   LAYER   1   ROW     7   COL     9   RATE   -100.0000    
 BOUNDARY    100   LAYER   1   ROW     7   COL    10   RATE   -100.0000    
 BOUNDARY    101   LAYER   1   ROW     7   COL    11   RATE   -100.0000    
 BOUNDARY    102   LAYER   1   ROW     7   COL    12   RATE    -29.3203    
 BOUNDARY    103   LAYER   1   ROW     7   COL    13   RATE    -4.26609    
 BOUNDARY    104   LAYER   1   ROW     7   COL    14   RATE     0.00000    
 BOUNDARY    105   LAYER   1   ROW     7   COL    15   RATE     0.00000    
 BOUNDARY    106   LAYER   1   ROW     8   COL     1   RATE     0.00000    
 BOUNDARY    107   LAYER   1   ROW     8   COL     2   RATE    -13.7686    
 BOUNDARY    108   LAYER   1   ROW     8   COL     3   RATE   -100.0000    
 BOUNDARY    109   LAYER   1   ROW     8   COL     4   RATE   -100.0000    
 BOUNDARY    110   LAYER   1   ROW     8   COL     5   RATE   -100.0000    
 BOUNDARY    111   LAYER   1   ROW     8   COL     6   RATE   -100.0000    
 BOUNDARY    112   LAYER   1   ROW     8   COL     7   RATE   -100.0000    
 BOUNDARY    113   LAYER   1   ROW     8   COL     8   RATE   -100.0000    
 BOUNDARY    114   LAYER   1   ROW     8   COL     9   RATE   -100.0000    
 BOUNDARY    115   LAYER   1   ROW     8   COL    10   RATE   -100.0000    
 BOUNDARY    116   LAYER   1   ROW     8   COL    11   RATE   -100.0000    
 BOUNDARY    117   LAYER   1   ROW     8   COL    12   RATE    -29.7398    
 BOUNDARY    118   LAYER   1   ROW     8   COL    13   RATE    -4.29915    
 BOUNDARY    119   LAYER   1   ROW     8   COL    14   RATE     0.00000    
 BOUNDARY    120   LAYER   1   ROW     8   COL    15   RATE     0.00000    
 BOUNDARY    121   LAYER   1   ROW     9   COL     1   RATE    -21.3712    
 BOUNDARY    122   LAYER   1   ROW     9   COL     2   RATE    -73.8742    
 BOUNDARY    123   LAYER   1   ROW     9   COL     3   RATE   -100.0000    
 BOUNDARY    124   LAYER   1   ROW     9   COL     4   RATE   -100.0000    
 BOUNDARY    125   LAYER   1   ROW     9   COL     5   RATE   -100.0000    
 BOUNDARY    126   LAYER   1   ROW     9   COL     6   RATE   -100.0000    
 BOUNDARY    127   LAYER   1   ROW     9   COL     7   RATE   -100.0000    
 BOUNDARY    128   LAYER   1   ROW     9   COL     8   RATE   -100.0000    
 BOUNDARY    129   LAYER   1   ROW     9   COL     9   RATE   -100.0000    
 BOUNDARY    130   LAYER   1   ROW     9   COL    10   RATE   -100.0000    
 BOUNDARY    131   LAYER   1   ROW     9   COL    11   RATE   -100.0000    
 BOUNDARY    132   LAYER   1   ROW     9   COL    12   RATE    -34.5729    
 BOUNDARY    133   LAYER   1   ROW     9   COL    13   RATE    -5.15981    
 BOUNDARY    134   LAYER   1   ROW     9   COL    14   RATE     0.00000    
 BOUNDARY    135   LAYER   1   ROW     9   COL    15   RATE     0.00000    
 BOUNDARY    136   LAYER   1   ROW    10   COL     1   RATE    -82.0559    
 BOUNDARY    137   LAYER   1   ROW    10   COL     2   RATE   -100.0000    
 BOUNDARY    138   LAYER   1   ROW    10   COL     3   RATE   -100.0000    
 BOUNDARY    139   LAYER   1   ROW    10   COL     4   RATE   -100.0000    
 BOUNDARY    140   LAYER   1   ROW    10   COL     5   RATE   -100.0000    
 BOUNDARY    141   LAYER   1   ROW    10   COL     6   RATE   -100.0000    
 BOUNDARY    142   LAYER   1   ROW    10   COL     7   RATE   -100.0000    
 BOUNDARY    143   LAYER   1   ROW    10   COL     8   RATE   -100.0000    
 BOUNDARY    144   LAYER   1   ROW    10   COL     9   RATE   -100.0000    
 BOUNDARY    145   LAYER   1   ROW    10   COL    10   RATE   -100.0000    
 BOUNDARY    146   LAYER   1   ROW    10   COL    11   RATE   -100.0000    
 BOUNDARY    147   LAYER   1   ROW    10   COL    12   RATE    -38.8034    
 BOUNDARY    148   LAYER   1   ROW    10   COL    13   RATE    -5.70799    
 BOUNDARY    149   LAYER   1   ROW    10   COL    14   RATE     0.00000    
 BOUNDARY    150   LAYER   1   ROW    10   COL    15   RATE     0.00000    

 HEAD WILL BE SAVED ON UNIT 1017 AT END OF TIME STEP    8, STRESS PERIOD    5
WEL   no.    1 value from time series:   0.0000     for time:  99.00     to 100.00    
WEL   no.    2 value from time series:   0.0000     for time:  99.00     to 100.00    
RIV   no.    1 value from time series:   101.00     for time:  99.00     to 100.00    
RIV   no.    2 value from time series:   101.00     for time:  99.00     to 100.00    
RIV   no.    3 value from time series:   111.50     for time:  99.00     to 100.00    
RIV   no.    4 value from time series:   111.50     for time:  99.00     to 100.00    
RIV   no.    5 value from time series:   115.10     for time:  99.00     to 100.00    
RIV   no.    6 value from time series:   115.10     for time:  99.00     to 100.00    
RIV   no.    7 value from time series:   104.00     for time:  99.00     to 100.00    
RIV   no.    8 value from time series:   104.00     for time:  99.00     to 100.00    
RIV   no.    9 value from time series:   113.50     for time:  99.00     to 100.00    
RIV   no.   10 value from time series:   113.50     for time:  99.00     to 100.00    
WEL   no.    1 value from time series:   0.0000     for time:  99.00     to 100.00    
WEL   no.    2 value from time series:   0.0000     for time:  99.00     to 100.00    
RIV   no.    1 value from time series:   101.00     for time:  99.00     to 100.00    
RIV   no.    2 value from time series:   101.00     for time:  99.00     to 100.00    
RIV   no.    3 value from time series:   111.50     for time:  99.00     to 100.00    
RIV   no.    4 value from time series:   111.50     for time:  99.00     to 100.00    
RIV   no.    5 value from time series:   115.10     for time:  99.00     to 100.00    
RIV   no.    6 value from time series:   115.10     for time:  99.00     to 100.00    
RIV   no.    7 value from time series:   104.00     for time:  99.00     to 100.00    
RIV   no.    8 value from time series:   104.00     for time:  99.00     to 100.00    
RIV   no.    9 value from time series:   113.50     for time:  99.00     to 100.00    
RIV   no.   10 value from time series:   113.50     for time:  99.00     to 100.00    

 OUTPUT CONTROL FOR STRESS PERIOD    5   TIME STEP    9
    SAVE BUDGET
    SAVE HEAD
    SAVE HEAD FOR ALL LAYERS
 UBDSV1 SAVING          STORAGE ON UNIT   1016 AT TIME STEP      9, STRESS PERIOD      5
 UBDSV1 SAVING FLOW RIGHT FACE  ON UNIT   1016 AT TIME STEP      9, STRESS PERIOD      5
 UBDSV1 SAVING FLOW FRONT FACE  ON UNIT   1016 AT TIME STEP      9, STRESS PERIOD      5
 UBDSV1 SAVING FLOW LOWER FACE  ON UNIT   1016 AT TIME STEP      9, STRESS PERIOD      5
 UBDSV4 SAVING WELLS NEAR RIVER ON UNIT   1016 AT TIME STEP      9, STRESS PERIOD      5

 WELLS NEAR RIVER   PERIOD  5   STEP  9
 BOUNDARY      1   LAYER   2   ROW     8   COL     4   RATE     0.00000      WELL_2
 BOUNDARY      2   LAYER   2   ROW     3   COL     4   RATE     0.00000      WELL_1
 UBDSV4 SAVING RIVER            ON UNIT   1016 AT TIME STEP      9, STRESS PERIOD      5

 RIVER              PERIOD  5   STEP  9
 BOUNDARY      1   LAYER   1   ROW     1   COL    15   RATE    -4899.80    
 BOUNDARY      2   LAYER   1   ROW     2   COL    15   RATE    -6024.45      RIV2
 BOUNDARY      3   LAYER   1   ROW     3   COL    15   RATE    -2290.59      RIV3
 BOUNDARY      4   LAYER   1   ROW     4   COL    15   RATE    -3754.15    
 BOUNDARY      5   LAYER   1   ROW     5   COL    15   RATE    -2392.02    
 BOUNDARY      6   LAYER   1   ROW     6   COL    15   RATE    -1739.67    
 BOUNDARY      7   LAYER   1   ROW     7   COL    15   RATE    -6222.19      RIVX
 BOUNDARY      8   LAYER   1   ROW     8   COL    15   RATE    -6070.52      RIVX
 BOUNDARY      9   LAYER   1   ROW     9   COL    15   RATE    -2280.28      RIVX
 BOUNDARY     10   LAYER   1   ROW    10   COL    15   RATE    -3185.38    

 GHB LAKES          PERIOD  5   STEP  9
 BOUNDARY      1   LAYER   1   ROW     3   COL     1   RATE    -14756.8    
 BOUNDARY      2   LAYER   1   ROW     7   COL     1   RATE    -2068.29      GHB2_UPPER
 BOUNDARY      3   LAYER   1   ROW     7   COL     1   RATE    -13316.5      GHB2_LOWER
 UBDSV4 SAVING RECHARGE         ON UNIT   1016 AT TIME STEP      9, STRESS PERIOD      5

 RECHARGE           PERIOD  5   STEP  9
 BOUNDARY      1   LAYER   1   ROW     1   COL     1   RATE     756.667    
 BOUNDARY      2   LAYER   1   ROW     1   COL     2   RATE     756.667    
 BOUNDARY      3   LAYER   1   ROW     1   COL     3   RATE     756.667    
 BOUNDARY      4   LAYER   1   ROW     1   COL     4   RATE     756.667    
 BOUNDARY      5   LAYER   1   ROW     1   COL     5   RATE     756.667    
 BOUNDARY      6   LAYER   1   ROW     1   COL     6   RATE     756.667    
 BOUNDARY      7   LAYER   1   ROW     1   COL     7   RATE     756.667    
 BOUNDARY      8   LAYER   1   ROW     1   COL     8   RATE     756.667    
 BOUNDARY      9   LAYER   1   ROW     1   COL     9   RATE     756.667    
 BOUNDARY     10   LAYER   1   ROW     1   COL    10   RATE     756.667    
 BOUNDARY     11   LAYER   1   ROW     1   COL    11   RATE     756.667    
 BOUNDARY     12   LAYER   1   ROW     1   COL    12   RATE     756.667    
 BOUNDARY     13   LAYER   1   ROW     1   COL    13   RATE     756.667    
 BOUNDARY     14   LAYER   1   ROW     1   COL    14   RATE     756.667    
 BOUNDARY     15   LAYER   1   ROW     1   COL    15   RATE     756.667    
 BOUNDARY     16   LAYER   1   ROW     2   COL     1   RATE     756.667    
 BOUNDARY     17   LAYER   1   ROW     2   COL     2   RATE     756.667    
 BOUNDARY     18   LAYER   1   ROW     2   COL     3   RATE     756.667    
 BOUNDARY     19   LAYER   1   ROW     2   COL     4   RATE     756.667    
 BOUNDARY     20   LAYER   1   ROW     2   COL     5   RATE     756.667    
 BOUNDARY     21   LAYER   1   ROW     2   COL     6   RATE     756.667    
 BOUNDARY     22   LAYER   1   ROW     2   COL     7   RATE     756.667    
 BOUNDARY     23   LAYER   1   ROW     2   COL     8   RATE     756.667    
 BOUNDARY     24   LAYER   1   ROW     2   COL     9   RATE     756.667    
 BOUNDARY     25   LAYER   1   ROW     2   COL    10   RATE     756.667    
 BOUNDARY     26   LAYER   1   ROW     2   COL    11   RATE     756.667    
 BOUNDARY     27   LAYER   1   ROW     2   COL    12   RATE     756.667    
 BOUNDARY     28   LAYER   1   ROW     2   COL    13   RATE     756.667    
 BOUNDARY     29   LAYER   1   ROW     2   COL    14   RATE     756.667    
 BOUNDARY     30   LAYER   1   ROW     2   COL    15   RATE     756.667    
 BOUNDARY     31   LAYER   1   ROW     3   COL     1   RATE     756.667    
 BOUNDARY     32   LAYER   1   ROW     3   COL     2   RATE     756.667    
 BOUNDARY     33   LAYER   1   ROW     3   COL     3   RATE     756.667    
 BOUNDARY     34   LAYER   1   ROW     3   COL     4   RATE     756.667    
 BOUNDARY     35   LAYER   1   ROW     3   COL     5   RATE     756.667    
 BOUNDARY     36   LAYER   1   ROW     3   COL     6   RATE     756.667    
 BOUNDARY     37   LAYER   1   ROW     3   COL     7   RATE     756.667    
 BOUNDARY     38   LAYER   1   ROW     3   COL     8   RATE     756.667    
 BOUNDARY     39   LAYER   1   ROW     3   COL     9   RATE     756.667    
 BOUNDARY     40   LAYER   1   ROW     3   COL    10   RATE     756.667    
 BOUNDARY     41   LAYER   1   ROW     3   COL    11   RATE     756.667    
 BOUNDARY     42   LAYER   1   ROW     3   COL    12   RATE     756.667    
 BOUNDARY     43   LAYER   1   ROW     3   COL    13   RATE     756.667    
 BOUNDARY     44   LAYER   1   ROW     3   COL    14   RATE     756.667    
 BOUNDARY     45   LAYER   1   ROW     3   COL    15   RATE     756.667    
 BOUNDARY     46   LAYER   1   ROW     4   COL     1   RATE     756.667    
 BOUNDARY     47   LAYER   1   ROW     4   COL     2   RATE     756.667    
 BOUNDARY     48   LAYER   1   ROW     4   COL     3   RATE     756.667    
 BOUNDARY     49   LAYER   1   ROW     4   COL     4   RATE     756.667    
 BOUNDARY     50   LAYER   1   ROW     4   COL     5   RATE     756.667    
 BOUNDARY     51   LAYER   1   ROW     4   COL     6   RATE     756.667    
 BOUNDARY     52   LAYER   1   ROW     4   COL     7   RATE     756.667    
 BOUNDARY     53   LAYER   1   ROW     4   COL     8   RATE     756.667    
 BOUNDARY     54   LAYER   1   ROW     4   COL     9   RATE     756.667    
 BOUNDARY     55   LAYER   1   ROW     4   COL    10   RATE     756.667    
 BOUNDARY     56   LAYER   1   ROW     4   COL    11   RATE     756.667    
 BOUNDARY     57   LAYER   1   ROW     4   COL    12   RATE     756.667    
 BOUNDARY     58   LAYER   1   ROW     4   COL    13   RATE     756.667    
 BOUNDARY     59   LAYER   1   ROW     4   COL    14   RATE     756.667    
 BOUNDARY     60   LAYER   1   ROW     4   COL    15   RATE     756.667    
 BOUNDARY     61   LAYER   1   ROW     5   COL     1   RATE     756.667    
 BOUNDARY     62   LAYER   1   ROW     5   COL     2   RATE     756.667    
 BOUNDARY     63   LAYER   1   ROW     5   COL     3   RATE     756.667    
 BOUNDARY     64   LAYER   1   ROW     5   COL     4   RATE     756.667    
 BOUNDARY     65   LAYER   1   ROW     5   COL     5   RATE     756.667    
 BOUNDARY     66   LAYER   1   ROW     5   COL     6   RATE     756.667    
 BOUNDARY     67   LAYER   1   ROW     5   COL     7   RATE     756.667    
 BOUNDARY     68   LAYER   1   ROW     5   COL     8   RATE     756.667    
 BOUNDARY     69   LAYER   1   ROW     5   COL     9   RATE     756.667    
 BOUNDARY     70   LAYER   1   ROW     5   COL    10   RATE     756.667    
 BOUNDARY     71   LAYER   1   ROW     5   COL    11   RATE     756.667    
 BOUNDARY     72   LAYER   1   ROW     5   COL    12   RATE     756.667    
 BOUNDARY     73   LAYER   1   ROW     5   COL    13   RATE     756.667    
 BOUNDARY     74   LAYER   1   ROW     5   COL    14   RATE     756.667    
 BOUNDARY     75   LAYER   1   ROW     5   COL    15   RATE     756.667    
 BOUNDARY     76   LAYER   1   ROW     6   COL     1   RATE     756.667    
 BOUNDARY     77   LAYER   1   ROW     6   COL     2   RATE     756.667    
 BOUNDARY     78   LAYER   1   ROW     6   COL     3   RATE     756.667    
 BOUNDARY     79   LAYER   1   ROW     6   COL     4   RATE     756.667    
 BOUNDARY     80   LAYER   1   ROW     6   COL     5   RATE     756.667    
 BOUNDARY     81   LAYER   1   ROW     6   COL     6   RATE     756.667    
 BOUNDARY     82   LAYER   1   ROW     6   COL     7   RATE     756.667    
 BOUNDARY     83   LAYER   1   ROW     6   COL     8   RATE     756.667    
 BOUNDARY     84   LAYER   1   ROW     6   COL     9   RATE     756.667    
 BOUNDARY     85   LAYER   1   ROW     6   COL    10   RATE     756.667    
 BOUNDARY     86   LAYER   1   ROW     6   COL    11   RATE     756.667    
 BOUNDARY     87   LAYER   1   ROW     6   COL    12   RATE     756.667    
 BOUNDARY     88   LAYER   1   ROW     6   COL    13   RATE     756.667    
 BOUNDARY     89   LAYER   1   ROW     6   COL    14   RATE     756.667    
 BOUNDARY     90   LAYER   1   ROW     6   COL    15   RATE     756.667    
 BOUNDARY     91   LAYER   1   ROW     7   COL     1   RATE     756.667    
 BOUNDARY     92   LAYER   1   ROW     7   COL     2   RATE     756.667    
 BOUNDARY     93   LAYER   1   ROW     7   COL     3   RATE     756.667    
 BOUNDARY     94   LAYER   1   ROW     7   COL     4   RATE     756.667    
 BOUNDARY     95   LAYER   1   ROW     7   COL     5   RATE     756.667    
 BOUNDARY     96   LAYER   1   ROW     7   COL     6   RATE     756.667    
 BOUNDARY     97   LAYER   1   ROW     7   COL     7   RATE     756.667    
 BOUNDARY     98   LAYER   1   ROW     7   COL     8   RATE     756.667    
 BOUNDARY     99   LAYER   1   ROW     7   COL     9   RATE     756.667    
 BOUNDARY    100   LAYER   1   ROW     7   COL    10   RATE     756.667    
 BOUNDARY    101   LAYER   1   ROW     7   COL    11   RATE     756.667    
 BOUNDARY    102   LAYER   1   ROW     7   COL    12   RATE     756.667    
 BOUNDARY    103   LAYER   1   ROW     7   COL    13   RATE     756.667    
 BOUNDARY    104   LAYER   1   ROW     7   COL    14   RATE     756.667    
 BOUNDARY    105   LAYER   1   ROW     7   COL    15   RATE     756.667    
 BOUNDARY    106   LAYER   1   ROW     8   COL     1   RATE     756.667    
 BOUNDARY    107   LAYER   1   ROW     8   COL     2   RATE     756.667    
 BOUNDARY    108   LAYER   1   ROW     8   COL     3   RATE     756.667    
 BOUNDARY    109   LAYER   1   ROW     8   COL     4   RATE     756.667    
 BOUNDARY    110   LAYER   1   ROW     8   COL     5   RATE     756.667    
 BOUNDARY    111   LAYER   1   ROW     8   COL     6   RATE     756.667    
 BOUNDARY    112   LAYER   1   ROW     8   COL     7   RATE     756.667    
 BOUNDARY    113   LAYER   1   ROW     8   COL     8   RATE     756.667    
 BOUNDARY    114   LAYER   1   ROW     8   COL     9   RATE     756.667    
 BOUNDARY    115   LAYER   1   ROW     8   COL    10   RATE     756.667    
 BOUNDARY    116   LAYER   1   ROW     8   COL    11   RATE     756.667    
 BOUNDARY    117   LAYER   1   ROW     8   COL    12   RATE     756.667    
 BOUNDARY    118   LAYER   1   ROW     8   COL    13   RATE     756.667    
 BOUNDARY    119   LAYER   1   ROW     8   COL    14   RATE     756.667    
 BOUNDARY    120   LAYER   1   ROW     8   COL    15   RATE     756.667    
 BOUNDARY    121   LAYER   1   ROW     9   COL     1   RATE     756.667    
 BOUNDARY    122   LAYER   1   ROW     9   COL     2   RATE     756.667    
 BOUNDARY    123   LAYER   1   ROW     9   COL     3   RATE     756.667    
 BOUNDARY    124   LAYER   1   ROW     9   COL     4   RATE     756.667    
 BOUNDARY    125   LAYER   1   ROW     9   COL     5   RATE     756.667    
 BOUNDARY    126   LAYER   1   ROW     9   COL     6   RATE     756.667    
 BOUNDARY    127   LAYER   1   ROW     9   COL     7   RATE     756.667    
 BOUNDARY    128   LAYER   1   ROW     9   COL     8   RATE     756.667    
 BOUNDARY    129   LAYER   1   ROW     9   COL     9   RATE     756.667    
 BOUNDARY    130   LAYER   1   ROW     9   COL    10   RATE     756.667    
 BOUNDARY    131   LAYER   1   ROW     9   COL    11   RATE     756.667    
 BOUNDARY    132   LAYER   1   ROW     9   COL    12   RATE     756.667    
 BOUNDARY    133   LAYER   1   ROW     9   COL    13   RATE     756.667    
 BOUNDARY    134   LAYER   1   ROW     9   COL    14   RATE     756.667    
 BOUNDARY    135   LAYER   1   ROW     9   COL    15   RATE     756.667    
 BOUNDARY    136   LAYER   1   ROW    10   COL     1   RATE     756.667    
 BOUNDARY    137   LAYER   1   ROW    10   COL     2   RATE     756.667    
 BOUNDARY    138   LAYER   1   ROW    10   COL     3   RATE     756.667    
 BOUNDARY    139   LAYER   1   ROW    10   COL     4   RATE     756.667    
 BOUNDARY    140   LAYER   1   ROW    10   COL     5   RATE     756.667    
 BOUNDARY    141   LAYER   1   ROW    10   COL     6   RATE     756.667    
 BOUNDARY    142   LAYER   1   ROW    10   COL     7   RATE     756.667    
 BOUNDARY    143   LAYER   1   ROW    10   COL     8   RATE     756.667    
 BOUNDARY    144   LAYER   1   ROW    10   COL     9   RATE     756.667    
 BOUNDARY    145   LAYER   1   ROW    10   COL    10   RATE     756.667    
 BOUNDARY    146   LAYER   1   ROW    10   COL    11   RATE     756.667    
 BOUNDARY    147   LAYER   1   ROW    10   COL    12   RATE     756.667    
 BOUNDARY    148   LAYER   1   ROW    10   COL    13   RATE     756.667    
 BOUNDARY    149   LAYER   1   ROW    10   COL    14   RATE     756.667    
 BOUNDARY    150   LAYER   1   ROW    10   COL    15   RATE     756.667    
 UBDSV4 SAVING ET SEGS          ON UNIT   1016 AT TIME STEP      9, STRESS PERIOD      5

 ET SEGS            PERIOD  5   STEP  9
 BOUNDARY      1   LAYER   1   ROW     1   COL     1   RATE    -2.93316    
 BOUNDARY      2   LAYER   1   ROW     1   COL     2   RATE    -9.78942    
 BOUNDARY      3   LAYER   1   ROW     1   COL     3   RATE    -62.6795    
 BOUNDARY      4   LAYER   1   ROW     1   COL     4   RATE   -100.0000    
 BOUNDARY      5   LAYER   1   ROW     1   COL     5   RATE   -100.0000    
 BOUNDARY      6   LAYER   1   ROW     1   COL     6   RATE   -100.0000    
 BOUNDARY      7   LAYER   1   ROW     1   COL     7   RATE   -100.0000    
 BOUNDARY      8   LAYER   1   ROW     1   COL     8   RATE   -100.0000    
 BOUNDARY      9   LAYER   1   ROW     1   COL     9   RATE   -100.0000    
 BOUNDARY     10   LAYER   1   ROW     1   COL    10   RATE   -100.0000    
 BOUNDARY     11   LAYER   1   ROW     1   COL    11   RATE   -100.0000    
 BOUNDARY     12   LAYER   1   ROW     1   COL    12   RATE    -19.5130    
 BOUNDARY     13   LAYER   1   ROW     1   COL    13   RATE     0.00000    
 BOUNDARY     14   LAYER   1   ROW     1   COL    14   RATE     0.00000    
 BOUNDARY     15   LAYER   1   ROW     1   COL    15   RATE     0.00000    
 BOUNDARY     16   LAYER   1   ROW     2   COL     1   RATE     0.00000    
 BOUNDARY     17   LAYER   1   ROW     2   COL     2   RATE    -5.25682    
 BOUNDARY     18   LAYER   1   ROW     2   COL     3   RATE    -34.5325    
 BOUNDARY     19   LAYER   1   ROW     2   COL     4   RATE   -100.0000    
 BOUNDARY     20   LAYER   1   ROW     2   COL     5   RATE   -100.0000    
 BOUNDARY     21   LAYER   1   ROW     2   COL     6   RATE   -100.0000    
 BOUNDARY     22   LAYER   1   ROW     2   COL     7   RATE   -100.0000    
 BOUNDARY     23   LAYER   1   ROW     2   COL     8   RATE   -100.0000    
 BOUNDARY     24   LAYER   1   ROW     2   COL     9   RATE   -100.0000    
 BOUNDARY     25   LAYER   1   ROW     2   COL    10   RATE   -100.0000    
 BOUNDARY     26   LAYER   1   ROW     2   COL    11   RATE   -100.0000    
 BOUNDARY     27   LAYER   1   ROW     2   COL    12   RATE    -21.2552    
 BOUNDARY     28   LAYER   1   ROW     2   COL    13   RATE   -0.924222    
 BOUNDARY     29   LAYER   1   ROW     2   COL    14   RATE     0.00000    
 BOUNDARY     30   LAYER   1   ROW     2   COL    15   RATE     0.00000    
 BOUNDARY     31   LAYER   1   ROW     3   COL     1   RATE     0.00000    
 BOUNDARY     32   LAYER   1   ROW     3   COL     2   RATE     0.00000    
 BOUNDARY     33   LAYER   1   ROW     3   COL     3   RATE    -24.8854    
 BOUNDARY     34   LAYER   1   ROW     3   COL     4   RATE   -100.0000    
 BOUNDARY     35   LAYER   1   ROW     3   COL     5   RATE   -100.0000    
 BOUNDARY     36   LAYER   1   ROW     3   COL     6   RATE   -100.0000    
 BOUNDARY     37   LAYER   1   ROW     3   COL     7   RATE   -100.0000    
 BOUNDARY     38   LAYER   1   ROW     3   COL     8   RATE   -100.0000    
 BOUNDARY     39   LAYER   1   ROW     3   COL     9   RATE   -100.0000    
 BOUNDARY     40   LAYER   1   ROW     3   COL    10   RATE   -100.0000    
 BOUNDARY     41   LAYER   1   ROW     3   COL    11   RATE   -100.0000    
 BOUNDARY     42   LAYER   1   ROW     3   COL    12   RATE    -24.1916    
 BOUNDARY     43   LAYER   1   ROW     3   COL    13   RATE    -2.71862    
 BOUNDARY     44   LAYER   1   ROW     3   COL    14   RATE     0.00000    
 BOUNDARY     45   LAYER   1   ROW     3   COL    15   RATE     0.00000    
 BOUNDARY     46   LAYER   1   ROW     4   COL     1   RATE     0.00000    
 BOUNDARY     47   LAYER   1   ROW     4   COL     2   RATE    -3.74891    
 BOUNDARY     48   LAYER   1   ROW     4   COL     3   RATE    -28.7841    
 BOUNDARY     49   LAYER   1   ROW     4   COL     4   RATE   -100.0000    
 BOUNDARY     50   LAYER   1   ROW     4   COL     5   RATE   -100.0000    
 BOUNDARY     51   LAYER   1   ROW     4   COL     6   RATE   -100.0000    
 BOUNDARY     52   LAYER   1   ROW     4   COL     7   RATE   -100.0000    
 BOUNDARY     53   LAYER   1   ROW     4   COL     8   RATE   -100.0000    
 BOUNDARY     54   LAYER   1   ROW     4   COL     9   RATE   -100.0000    
 BOUNDARY     55   LAYER   1   ROW     4   COL    10   RATE   -100.0000    
 BOUNDARY     56   LAYER   1   ROW     4   COL    11   RATE   -100.0000    
 BOUNDARY     57   LAYER   1   ROW     4   COL    12   RATE    -26.9771    
 BOUNDARY     58   LAYER   1   ROW     4   COL    13   RATE    -4.16910    
 BOUNDARY     59   LAYER   1   ROW     4   COL    14   RATE     0.00000    
 BOUNDARY     60   LAYER   1   ROW     4   COL    15   RATE     0.00000    
 BOUNDARY     61   LAYER   1   ROW     5   COL     1   RATE     0.00000    
 BOUNDARY     62   LAYER   1   ROW     5   COL     2   RATE    -6.73242    
 BOUNDARY     63   LAYER   1   ROW     5   COL     3   RATE    -44.4122    
 BOUNDARY     64   LAYER   1   ROW     5   COL     4   RATE   -100.0000    
 BOUNDARY     65   LAYER   1   ROW     5   COL     5   RATE   -100.0000    
 BOUNDARY     66   LAYER   1   ROW     5   COL     6   RATE   -100.0000    
 BOUNDARY     67   LAYER   1   ROW     5   COL     7   RATE   -100.0000    
 BOUNDARY     68   LAYER   1   ROW     5   COL     8   RATE   -100.0000    
 BOUNDARY     69   LAYER   1   ROW     5   COL     9   RATE   -100.0000    
 BOUNDARY     70   LAYER   1   ROW     5   COL    10   RATE   -100.0000    
 BOUNDARY     71   LAYER   1   ROW     5   COL    11   RATE   -100.0000    
 BOUNDARY     72   LAYER   1   ROW     5   COL    12   RATE    -28.8893    
 BOUNDARY     73   LAYER   1   ROW     5   COL    13   RATE    -5.05132    
 BOUNDARY     74   LAYER   1   ROW     5   COL    14   RATE     0.00000    
 BOUNDARY     75   LAYER   1   ROW     5   COL    15   RATE     0.00000    
 BOUNDARY     76   LAYER   1   ROW     6   COL     1   RATE     0.00000    
 BOUNDARY     77   LAYER   1   ROW     6   COL     2   RATE    -5.28524    
 BOUNDARY     78   LAYER   1   ROW     6   COL     3   RATE    -48.1761    
 BOUNDARY     79   LAYER   1   ROW     6   COL     4   RATE   -100.0000    
 BOUNDARY     80   LAYER   1   ROW     6   COL     5   RATE   -100.0000    
 BOUNDARY     81   LAYER   1   ROW     6   COL     6   RATE   -100.0000    
 BOUNDARY     82   LAYER   1   ROW     6   COL     7   RATE   -100.0000    
 BOUNDARY     83   LAYER   1   ROW     6   COL     8   RATE   -100.0000    
 BOUNDARY     84   LAYER   1   ROW     6   COL     9   RATE   -100.0000    
 BOUNDARY     85   LAYER   1   ROW     6   COL    10   RATE   -100.0000    
 BOUNDARY     86   LAYER   1   ROW     6   COL    11   RATE   -100.0000    
 BOUNDARY     87   LAYER   1   ROW     6   COL    12   RATE    -29.5313    
 BOUNDARY     88   LAYER   1   ROW     6   COL    13   RATE    -5.00193    
 BOUNDARY     89   LAYER   1   ROW     6   COL    14   RATE     0.00000    
 BOUNDARY     90   LAYER   1   ROW     6   COL    15   RATE     0.00000    
 BOUNDARY     91   LAYER   1   ROW     7   COL     1   RATE     0.00000    
 BOUNDARY     92   LAYER   1   ROW     7   COL     2   RATE    -1.73995    
 BOUNDARY     93   LAYER   1   ROW     7   COL     3   RATE    -54.9656    
 BOUNDARY     94   LAYER   1   ROW     7   COL     4   RATE   -100.0000    
 BOUNDARY     95   LAYER   1   ROW     7   COL     5   RATE   -100.0000    
 BOUNDARY     96   LAYER   1   ROW     7   COL     6   RATE   -100.0000    
 BOUNDARY     97   LAYER   1   ROW     7   COL     7   RATE   -100.0000    
 BOUNDARY     98   LAYER   1   ROW     7   COL     8   RATE   -100.0000    
 BOUNDARY     99   LAYER   1   ROW     7   COL     9   RATE   -100.0000    
 BOUNDARY    100   LAYER   1   ROW     7   COL    10   RATE   -100.0000    
 BOUNDARY    101   LAYER   1   ROW     7   COL    11   RATE   -100.0000    
 BOUNDARY    102   LAYER   1   ROW     7   COL    12   RATE    -29.3867    
 BOUNDARY    103   LAYER   1   ROW     7   COL    13   RATE    -4.28535    
 BOUNDARY    104   LAYER   1   ROW     7   COL    14   RATE     0.00000    
 BOUNDARY    105   LAYER   1   ROW     7   COL    15   RATE     0.00000    
 BOUNDARY    106   LAYER   1   ROW     8   COL     1   RATE     0.00000    
 BOUNDARY    107   LAYER   1   ROW     8   COL     2   RATE    -13.8317    
 BOUNDARY    108   LAYER   1   ROW     8   COL     3   RATE   -100.0000    
 BOUNDARY    109   LAYER   1   ROW     8   COL     4   RATE   -100.0000    
 BOUNDARY    110   LAYER   1   ROW     8   COL     5   RATE   -100.0000    
 BOUNDARY    111   LAYER   1   ROW     8   COL     6   RATE   -100.0000    
 BOUNDARY    112   LAYER   1   ROW     8   COL     7   RATE   -100.0000    
 BOUNDARY    113   LAYER   1   ROW     8   COL     8   RATE   -100.0000    
 BOUNDARY    114   LAYER   1   ROW     8   COL     9   RATE   -100.0000    
 BOUNDARY    115   LAYER   1   ROW     8   COL    10   RATE   -100.0000    
 BOUNDARY    116   LAYER   1   ROW     8   COL    11   RATE   -100.0000    
 BOUNDARY    117   LAYER   1   ROW     8   COL    12   RATE    -29.8068    
 BOUNDARY    118   LAYER   1   ROW     8   COL    13   RATE    -4.31881    
 BOUNDARY    119   LAYER   1   ROW     8   COL    14   RATE     0.00000    
 BOUNDARY    120   LAYER   1   ROW     8   COL    15   RATE     0.00000    
 BOUNDARY    121   LAYER   1   ROW     9   COL     1   RATE    -21.4348    
 BOUNDARY    122   LAYER   1   ROW     9   COL     2   RATE    -74.2118    
 BOUNDARY    123   LAYER   1   ROW     9   COL     3   RATE   -100.0000    
 BOUNDARY    124   LAYER   1   ROW     9   COL     4   RATE   -100.0000    
 BOUNDARY    125   LAYER   1   ROW     9   COL     5   RATE   -100.0000    
 BOUNDARY    126   LAYER   1   ROW     9   COL     6   RATE   -100.0000    
 BOUNDARY    127   LAYER   1   ROW     9   COL     7   RATE   -100.0000    
 BOUNDARY    128   LAYER   1   ROW     9   COL     8   RATE   -100.0000    
 BOUNDARY    129   LAYER   1   ROW     9   COL     9   RATE   -100.0000    
 BOUNDARY    130   LAYER   1   ROW     9   COL    10   RATE   -100.0000    
 BOUNDARY    131   LAYER   1   ROW     9   COL    11   RATE   -100.0000    
 BOUNDARY    132   LAYER   1   ROW     9   COL    12   RATE    -34.9239    
 BOUNDARY    133   LAYER   1   ROW     9   COL    13   RATE    -5.17989    
 BOUNDARY    134   LAYER   1   ROW     9   COL    14   RATE     0.00000    
 BOUNDARY    135   LAYER   1   ROW     9   COL    15   RATE     0.00000    
 BOUNDARY    136   LAYER   1   ROW    10   COL     1   RATE    -82.3923    
 BOUNDARY    137   LAYER   1   ROW    10   COL     2   RATE   -100.0000    
 BOUNDARY    138   LAYER   1   ROW    10   COL     3   RATE   -100.0000    
 BOUNDARY    139   LAYER   1   ROW    10   COL     4   RATE   -100.0000    
 BOUNDARY    140   LAYER   1   ROW    10   COL     5   RATE   -100.0000    
 BOUNDARY    141   LAYER   1   ROW    10   COL     6   RATE   -100.0000    
 BOUNDARY    142   LAYER   1   ROW    10   COL     7   RATE   -100.0000    
 BOUNDARY    143   LAYER   1   ROW    10   COL     8   RATE   -100.0000    
 BOUNDARY    144   LAYER   1   ROW    10   COL     9   RATE   -100.0000    
 BOUNDARY    145   LAYER   1   ROW    10   COL    10   RATE   -100.0000    
 BOUNDARY    146   LAYER   1   ROW    10   COL    11   RATE   -100.0000    
 BOUNDARY    147   LAYER   1   ROW    10   COL    12   RATE    -39.1549    
 BOUNDARY    148   LAYER   1   ROW    10   COL    13   RATE    -5.72834    
 BOUNDARY    149   LAYER   1   ROW    10   COL    14   RATE     0.00000    
 BOUNDARY    150   LAYER   1   ROW    10   COL    15   RATE     0.00000    

 HEAD WILL BE SAVED ON UNIT 1017 AT END OF TIME STEP    9, STRESS PERIOD    5
WEL   no.    1 value from time series:   0.0000     for time: 100.00     to  101.0    
WEL   no.    2 value from time series:   0.0000     for time: 100.00     to  101.0    
RIV   no.    1 value from time series:   101.00     for time: 100.00     to  101.0    
RIV   no.    2 value from time series:   101.00     for time: 100.00     to  101.0    
RIV   no.    3 value from time series:   111.50     for time: 100.00     to  101.0    
RIV   no.    4 value from time series:   111.50     for time: 100.00     to  101.0    
RIV   no.    5 value from time series:   115.10     for time: 100.00     to  101.0    
RIV   no.    6 value from time series:   115.10     for time: 100.00     to  101.0    
RIV   no.    7 value from time series:   104.00     for time: 100.00     to  101.0    
RIV   no.    8 value from time series:   104.00     for time: 100.00     to  101.0    
RIV   no.    9 value from time series:   113.50     for time: 100.00     to  101.0    
RIV   no.   10 value from time series:   113.50     for time: 100.00     to  101.0    
WEL   no.    1 value from time series:   0.0000     for time: 100.00     to  101.0    
WEL   no.    2 value from time series:   0.0000     for time: 100.00     to  101.0    
RIV   no.    1 value from time series:   101.00     for time: 100.00     to  101.0    
RIV   no.    2 value from time series:   101.00     for time: 100.00     to  101.0    
RIV   no.    3 value from time series:   111.50     for time: 100.00     to  101.0    
RIV   no.    4 value from time series:   111.50     for time: 100.00     to  101.0    
RIV   no.    5 value from time series:   115.10     for time: 100.00     to  101.0    
RIV   no.    6 value from time series:   115.10     for time: 100.00     to  101.0    
RIV   no.    7 value from time series:   104.00     for time: 100.00     to  101.0    
RIV   no.    8 value from time series:   104.00     for time: 100.00     to  101.0    
RIV   no.    9 value from time series:   113.50     for time: 100.00     to  101.0    
RIV   no.   10 value from time series:   113.50     for time: 100.00     to  101.0    

 OUTPUT CONTROL FOR STRESS PERIOD    5   TIME STEP   10
    SAVE BUDGET
    SAVE HEAD
    SAVE HEAD FOR ALL LAYERS
 UBDSV1 SAVING          STORAGE ON UNIT   1016 AT TIME STEP     10, STRESS PERIOD      5
 UBDSV1 SAVING FLOW RIGHT FACE  ON UNIT   1016 AT TIME STEP     10, STRESS PERIOD      5
 UBDSV1 SAVING FLOW FRONT FACE  ON UNIT   1016 AT TIME STEP     10, STRESS PERIOD      5
 UBDSV1 SAVING FLOW LOWER FACE  ON UNIT   1016 AT TIME STEP     10, STRESS PERIOD      5
 UBDSV4 SAVING WELLS NEAR RIVER ON UNIT   1016 AT TIME STEP     10, STRESS PERIOD      5

 WELLS NEAR RIVER   PERIOD  5   STEP 10
 BOUNDARY      1   LAYER   2   ROW     8   COL     4   RATE     0.00000      WELL_2
 BOUNDARY      2   LAYER   2   ROW     3   COL     4   RATE     0.00000      WELL_1
 UBDSV4 SAVING RIVER            ON UNIT   1016 AT TIME STEP     10, STRESS PERIOD      5

 RIVER              PERIOD  5   STEP 10
 BOUNDARY      1   LAYER   1   ROW     1   COL    15   RATE    -4903.56    
 BOUNDARY      2   LAYER   1   ROW     2   COL    15   RATE    -6028.31      RIV2
 BOUNDARY      3   LAYER   1   ROW     3   COL    15   RATE    -2294.48      RIV3
 BOUNDARY      4   LAYER   1   ROW     4   COL    15   RATE    -3758.09    
 BOUNDARY      5   LAYER   1   ROW     5   COL    15   RATE    -2395.89    
 BOUNDARY      6   LAYER   1   ROW     6   COL    15   RATE    -1743.50    
 BOUNDARY      7   LAYER   1   ROW     7   COL    15   RATE    -6226.14      RIVX
 BOUNDARY      8   LAYER   1   ROW     8   COL    15   RATE    -6074.58      RIVX
 BOUNDARY      9   LAYER   1   ROW     9   COL    15   RATE    -2284.39      RIVX
 BOUNDARY     10   LAYER   1   ROW    10   COL    15   RATE    -3189.59    

 GHB LAKES          PERIOD  5   STEP 10
 BOUNDARY      1   LAYER   1   ROW     3   COL     1   RATE    -14763.8    
 BOUNDARY      2   LAYER   1   ROW     7   COL     1   RATE    -2073.93      GHB2_UPPER
 BOUNDARY      3   LAYER   1   ROW     7   COL     1   RATE    -13318.5      GHB2_LOWER
 UBDSV4 SAVING RECHARGE         ON UNIT   1016 AT TIME STEP     10, STRESS PERIOD      5

 RECHARGE           PERIOD  5   STEP 10
 BOUNDARY      1   LAYER   1   ROW     1   COL     1   RATE     760.000    
 BOUNDARY      2   LAYER   1   ROW     1   COL     2   RATE     760.000    
 BOUNDARY      3   LAYER   1   ROW     1   COL     3   RATE     760.000    
 BOUNDARY      4   LAYER   1   ROW     1   COL     4   RATE     760.000    
 BOUNDARY      5   LAYER   1   ROW     1   COL     5   RATE     760.000    
 BOUNDARY      6   LAYER   1   ROW     1   COL     6   RATE     760.000    
 BOUNDARY      7   LAYER   1   ROW     1   COL     7   RATE     760.000    
 BOUNDARY      8   LAYER   1   ROW     1   COL     8   RATE     760.000    
 BOUNDARY      9   LAYER   1   ROW     1   COL     9   RATE     760.000    
 BOUNDARY     10   LAYER   1   ROW     1   COL    10   RATE     760.000    
 BOUNDARY     11   LAYER   1   ROW     1   COL    11   RATE     760.000    
 BOUNDARY     12   LAYER   1   ROW     1   COL    12   RATE     760.000    
 BOUNDARY     13   LAYER   1   ROW     1   COL    13   RATE     760.000    
 BOUNDARY     14   LAYER   1   ROW     1   COL    14   RATE     760.000    
 BOUNDARY     15   LAYER   1   ROW     1   COL    15   RATE     760.000    
 BOUNDARY     16   LAYER   1   ROW     2   COL     1   RATE     760.000    
 BOUNDARY     17   LAYER   1   ROW     2   COL     2   RATE     760.000    
 BOUNDARY     18   LAYER   1   ROW     2   COL     3   RATE     760.000    
 BOUNDARY     19   LAYER   1   ROW     2   COL     4   RATE     760.000    
 BOUNDARY     20   LAYER   1   ROW     2   COL     5   RATE     760.000    
 BOUNDARY     21   LAYER   1   ROW     2   COL     6   RATE     760.000    
 BOUNDARY     22   LAYER   1   ROW     2   COL     7   RATE     760.000    
 BOUNDARY     23   LAYER   1   ROW     2   COL     8   RATE     760.000    
 BOUNDARY     24   LAYER   1   ROW     2   COL     9   RATE     760.000    
 BOUNDARY     25   LAYER   1   ROW     2   COL    10   RATE     760.000    
 BOUNDARY     26   LAYER   1   ROW     2   COL    11   RATE     760.000    
 BOUNDARY     27   LAYER   1   ROW     2   COL    12   RATE     760.000    
 BOUNDARY     28   LAYER   1   ROW     2   COL    13   RATE     760.000    
 BOUNDARY     29   LAYER   1   ROW     2   COL    14   RATE     760.000    
 BOUNDARY     30   LAYER   1   ROW     2   COL    15   RATE     760.000    
 BOUNDARY     31   LAYER   1   ROW     3   COL     1   RATE     760.000    
 BOUNDARY     32   LAYER   1   ROW     3   COL     2   RATE     760.000    
 BOUNDARY     33   LAYER   1   ROW     3   COL     3   RATE     760.000    
 BOUNDARY     34   LAYER   1   ROW     3   COL     4   RATE     760.000    
 BOUNDARY     35   LAYER   1   ROW     3   COL     5   RATE     760.000    
 BOUNDARY     36   LAYER   1   ROW     3   COL     6   RATE     760.000    
 BOUNDARY     37   LAYER   1   ROW     3   COL     7   RATE     760.000    
 BOUNDARY     38   LAYER   1   ROW     3   COL     8   RATE     760.000    
 BOUNDARY     39   LAYER   1   ROW     3   COL     9   RATE     760.000    
 BOUNDARY     40   LAYER   1   ROW     3   COL    10   RATE     760.000    
 BOUNDARY     41   LAYER   1   ROW     3   COL    11   RATE     760.000    
 BOUNDARY     42   LAYER   1   ROW     3   COL    12   RATE     760.000    
 BOUNDARY     43   LAYER   1   ROW     3   COL    13   RATE     760.000    
 BOUNDARY     44   LAYER   1   ROW     3   COL    14   RATE     760.000    
 BOUNDARY     45   LAYER   1   ROW     3   COL    15   RATE     760.000    
 BOUNDARY     46   LAYER   1   ROW     4   COL     1   RATE     760.000    
 BOUNDARY     47   LAYER   1   ROW     4   COL     2   RATE     760.000    
 BOUNDARY     48   LAYER   1   ROW     4   COL     3   RATE     760.000    
 BOUNDARY     49   LAYER   1   ROW     4   COL     4   RATE     760.000    
 BOUNDARY     50   LAYER   1   ROW     4   COL     5   RATE     760.000    
 BOUNDARY     51   LAYER   1   ROW     4   COL     6   RATE     760.000    
 BOUNDARY     52   LAYER   1   ROW     4   COL     7   RATE     760.000    
 BOUNDARY     53   LAYER   1   ROW     4   COL     8   RATE     760.000    
 BOUNDARY     54   LAYER   1   ROW     4   COL     9   RATE     760.000    
 BOUNDARY     55   LAYER   1   ROW     4   COL    10   RATE     760.000    
 BOUNDARY     56   LAYER   1   ROW     4   COL    11   RATE     760.000    
 BOUNDARY     57   LAYER   1   ROW     4   COL    12   RATE     760.000    
 BOUNDARY     58   LAYER   1   ROW     4   COL    13   RATE     760.000    
 BOUNDARY     59   LAYER   1   ROW     4   COL    14   RATE     760.000    
 BOUNDARY     60   LAYER   1   ROW     4   COL    15   RATE     760.000    
 BOUNDARY     61   LAYER   1   ROW     5   COL     1   RATE     760.000    
 BOUNDARY     62   LAYER   1   ROW     5   COL     2   RATE     760.000    
 BOUNDARY     63   LAYER   1   ROW     5   COL     3   RATE     760.000    
 BOUNDARY     64   LAYER   1   ROW     5   COL     4   RATE     760.000    
 BOUNDARY     65   LAYER   1   ROW     5   COL     5   RATE     760.000    
 BOUNDARY     66   LAYER   1   ROW     5   COL     6   RATE     760.000    
 BOUNDARY     67   LAYER   1   ROW     5   COL     7   RATE     760.000    
 BOUNDARY     68   LAYER   1   ROW     5   COL     8   RATE     760.000    
 BOUNDARY     69   LAYER   1   ROW     5   COL     9   RATE     760.000    
 BOUNDARY     70   LAYER   1   ROW     5   COL    10   RATE     760.000    
 BOUNDARY     71   LAYER   1   ROW     5   COL    11   RATE     760.000    
 BOUNDARY     72   LAYER   1   ROW     5   COL    12   RATE     760.000    
 BOUNDARY     73   LAYER   1   ROW     5   COL    13   RATE     760.000    
 BOUNDARY     74   LAYER   1   ROW     5   COL    14   RATE     760.000    
 BOUNDARY     75   LAYER   1   ROW     5   COL    15   RATE     760.000    
 BOUNDARY     76   LAYER   1   ROW     6   COL     1   RATE     760.000    
 BOUNDARY     77   LAYER   1   ROW     6   COL     2   RATE     760.000    
 BOUNDARY     78   LAYER   1   ROW     6   COL     3   RATE     760.000    
 BOUNDARY     79   LAYER   1   ROW     6   COL     4   RATE     760.000    
 BOUNDARY     80   LAYER   1   ROW     6   COL     5   RATE     760.000    
 BOUNDARY     81   LAYER   1   ROW     6   COL     6   RATE     760.000    
 BOUNDARY     82   LAYER   1   ROW     6   COL     7   RATE     760.000    
 BOUNDARY     83   LAYER   1   ROW     6   COL     8   RATE     760.000    
 BOUNDARY     84   LAYER   1   ROW     6   COL     9   RATE     760.000    
 BOUNDARY     85   LAYER   1   ROW     6   COL    10   RATE     760.000    
 BOUNDARY     86   LAYER   1   ROW     6   COL    11   RATE     760.000    
 BOUNDARY     87   LAYER   1   ROW     6   COL    12   RATE     760.000    
 BOUNDARY     88   LAYER   1   ROW     6   COL    13   RATE     760.000    
 BOUNDARY     89   LAYER   1   ROW     6   COL    14   RATE     760.000    
 BOUNDARY     90   LAYER   1   ROW     6   COL    15   RATE     760.000    
 BOUNDARY     91   LAYER   1   ROW     7   COL     1   RATE     760.000    
 BOUNDARY     92   LAYER   1   ROW     7   COL     2   RATE     760.000    
 BOUNDARY     93   LAYER   1   ROW     7   COL     3   RATE     760.000    
 BOUNDARY     94   LAYER   1   ROW     7   COL     4   RATE     760.000    
 BOUNDARY     95   LAYER   1   ROW     7   COL     5   RATE     760.000    
 BOUNDARY     96   LAYER   1   ROW     7   COL     6   RATE     760.000    
 BOUNDARY     97   LAYER   1   ROW     7   COL     7   RATE     760.000    
 BOUNDARY     98   LAYER   1   ROW     7   COL     8   RATE     760.000    
 BOUNDARY     99   LAYER   1   ROW     7   COL     9   RATE     760.000    
 BOUNDARY    100   LAYER   1   ROW     7   COL    10   RATE     760.000    
 BOUNDARY    101   LAYER   1   ROW     7   COL    11   RATE     760.000    
 BOUNDARY    102   LAYER   1   ROW     7   COL    12   RATE     760.000    
 BOUNDARY    103   LAYER   1   ROW     7   COL    13   RATE     760.000    
 BOUNDARY    104   LAYER   1   ROW     7   COL    14   RATE     760.000    
 BOUNDARY    105   LAYER   1   ROW     7   COL    15   RATE     760.000    
 BOUNDARY    106   LAYER   1   ROW     8   COL     1   RATE     760.000    
 BOUNDARY    107   LAYER   1   ROW     8   COL     2   RATE     760.000    
 BOUNDARY    108   LAYER   1   ROW     8   COL     3   RATE     760.000    
 BOUNDARY    109   LAYER   1   ROW     8   COL     4   RATE     760.000    
 BOUNDARY    110   LAYER   1   ROW     8   COL     5   RATE     760.000    
 BOUNDARY    111   LAYER   1   ROW     8   COL     6   RATE     760.000    
 BOUNDARY    112   LAYER   1   ROW     8   COL     7   RATE     760.000    
 BOUNDARY    113   LAYER   1   ROW     8   COL     8   RATE     760.000    
 BOUNDARY    114   LAYER   1   ROW     8   COL     9   RATE     760.000    
 BOUNDARY    115   LAYER   1   ROW     8   COL    10   RATE     760.000    
 BOUNDARY    116   LAYER   1   ROW     8   COL    11   RATE     760.000    
 BOUNDARY    117   LAYER   1   ROW     8   COL    12   RATE     760.000    
 BOUNDARY    118   LAYER   1   ROW     8   COL    13   RATE     760.000    
 BOUNDARY    119   LAYER   1   ROW     8   COL    14   RATE     760.000    
 BOUNDARY    120   LAYER   1   ROW     8   COL    15   RATE     760.000    
 BOUNDARY    121   LAYER   1   ROW     9   COL     1   RATE     760.000    
 BOUNDARY    122   LAYER   1   ROW     9   COL     2   RATE     760.000    
 BOUNDARY    123   LAYER   1   ROW     9   COL     3   RATE     760.000    
 BOUNDARY    124   LAYER   1   ROW     9   COL     4   RATE     760.000    
 BOUNDARY    125   LAYER   1   ROW     9   COL     5   RATE     760.000    
 BOUNDARY    126   LAYER   1   ROW     9   COL     6   RATE     760.000    
 BOUNDARY    127   LAYER   1   ROW     9   COL     7   RATE     760.000    
 BOUNDARY    128   LAYER   1   ROW     9   COL     8   RATE     760.000    
 BOUNDARY    129   LAYER   1   ROW     9   COL     9   RATE     760.000    
 BOUNDARY    130   LAYER   1   ROW     9   COL    10   RATE     760.000    
 BOUNDARY    131   LAYER   1   ROW     9   COL    11   RATE     760.000    
 BOUNDARY    132   LAYER   1   ROW     9   COL    12   RATE     760.000    
 BOUNDARY    133   LAYER   1   ROW     9   COL    13   RATE     760.000    
 BOUNDARY    134   LAYER   1   ROW     9   COL    14   RATE     760.000    
 BOUNDARY    135   LAYER   1   ROW     9   COL    15   RATE     760.000    
 BOUNDARY    136   LAYER   1   ROW    10   COL     1   RATE     760.000    
 BOUNDARY    137   LAYER   1   ROW    10   COL     2   RATE     760.000    
 BOUNDARY    138   LAYER   1   ROW    10   COL     3   RATE     760.000    
 BOUNDARY    139   LAYER   1   ROW    10   COL     4   RATE     760.000    
 BOUNDARY    140   LAYER   1   ROW    10   COL     5   RATE     760.000    
 BOUNDARY    141   LAYER   1   ROW    10   COL     6   RATE     760.000    
 BOUNDARY    142   LAYER   1   ROW    10   COL     7   RATE     760.000    
 BOUNDARY    143   LAYER   1   ROW    10   COL     8   RATE     760.000    
 BOUNDARY    144   LAYER   1   ROW    10   COL     9   RATE     760.000    
 BOUNDARY    145   LAYER   1   ROW    10   COL    10   RATE     760.000    
 BOUNDARY    146   LAYER   1   ROW    10   COL    11   RATE     760.000    
 BOUNDARY    147   LAYER   1   ROW    10   COL    12   RATE     760.000    
 BOUNDARY    148   LAYER   1   ROW    10   COL    13   RATE     760.000    
 BOUNDARY    149   LAYER   1   ROW    10   COL    14   RATE     760.000    
 BOUNDARY    150   LAYER   1   ROW    10   COL    15   RATE     760.000    
 UBDSV4 SAVING ET SEGS          ON UNIT   1016 AT TIME STEP     10, STRESS PERIOD      5

 ET SEGS            PERIOD  5   STEP 10
 BOUNDARY      1   LAYER   1   ROW     1   COL     1   RATE    -2.95272    
 BOUNDARY      2   LAYER   1   ROW     1   COL     2   RATE    -9.80925    
 BOUNDARY      3   LAYER   1   ROW     1   COL     3   RATE    -63.0256    
 BOUNDARY      4   LAYER   1   ROW     1   COL     4   RATE   -100.0000    
 BOUNDARY      5   LAYER   1   ROW     1   COL     5   RATE   -100.0000    
 BOUNDARY      6   LAYER   1   ROW     1   COL     6   RATE   -100.0000    
 BOUNDARY      7   LAYER   1   ROW     1   COL     7   RATE   -100.0000    
 BOUNDARY      8   LAYER   1   ROW     1   COL     8   RATE   -100.0000    
 BOUNDARY      9   LAYER   1   ROW     1   COL     9   RATE   -100.0000    
 BOUNDARY     10   LAYER   1   ROW     1   COL    10   RATE   -100.0000    
 BOUNDARY     11   LAYER   1   ROW     1   COL    11   RATE   -100.0000    
 BOUNDARY     12   LAYER   1   ROW     1   COL    12   RATE    -19.5805    
 BOUNDARY     13   LAYER   1   ROW     1   COL    13   RATE     0.00000    
 BOUNDARY     14   LAYER   1   ROW     1   COL    14   RATE     0.00000    
 BOUNDARY     15   LAYER   1   ROW     1   COL    15   RATE     0.00000    
 BOUNDARY     16   LAYER   1   ROW     2   COL     1   RATE     0.00000    
 BOUNDARY     17   LAYER   1   ROW     2   COL     2   RATE    -5.27632    
 BOUNDARY     18   LAYER   1   ROW     2   COL     3   RATE    -34.8831    
 BOUNDARY     19   LAYER   1   ROW     2   COL     4   RATE   -100.0000    
 BOUNDARY     20   LAYER   1   ROW     2   COL     5   RATE   -100.0000    
 BOUNDARY     21   LAYER   1   ROW     2   COL     6   RATE   -100.0000    
 BOUNDARY     22   LAYER   1   ROW     2   COL     7   RATE   -100.0000    
 BOUNDARY     23   LAYER   1   ROW     2   COL     8   RATE   -100.0000    
 BOUNDARY     24   LAYER   1   ROW     2   COL     9   RATE   -100.0000    
 BOUNDARY     25   LAYER   1   ROW     2   COL    10   RATE   -100.0000    
 BOUNDARY     26   LAYER   1   ROW     2   COL    11   RATE   -100.0000    
 BOUNDARY     27   LAYER   1   ROW     2   COL    12   RATE    -21.3228    
 BOUNDARY     28   LAYER   1   ROW     2   COL    13   RATE   -0.943921    
 BOUNDARY     29   LAYER   1   ROW     2   COL    14   RATE     0.00000    
 BOUNDARY     30   LAYER   1   ROW     2   COL    15   RATE     0.00000    
 BOUNDARY     31   LAYER   1   ROW     3   COL     1   RATE     0.00000    
 BOUNDARY     32   LAYER   1   ROW     3   COL     2   RATE     0.00000    
 BOUNDARY     33   LAYER   1   ROW     3   COL     3   RATE    -24.9515    
 BOUNDARY     34   LAYER   1   ROW     3   COL     4   RATE   -100.0000    
 BOUNDARY     35   LAYER   1   ROW     3   COL     5   RATE   -100.0000    
 BOUNDARY     36   LAYER   1   ROW     3   COL     6   RATE   -100.0000    
 BOUNDARY     37   LAYER   1   ROW     3   COL     7   RATE   -100.0000    
 BOUNDARY     38   LAYER   1   ROW     3   COL     8   RATE   -100.0000    
 BOUNDARY     39   LAYER   1   ROW     3   COL     9   RATE   -100.0000    
 BOUNDARY     40   LAYER   1   ROW     3   COL    10   RATE   -100.0000    
 BOUNDARY     41   LAYER   1   ROW     3   COL    11   RATE   -100.0000    
 BOUNDARY     42   LAYER   1   ROW     3   COL    12   RATE    -24.2592    
 BOUNDARY     43   LAYER   1   ROW     3   COL    13   RATE    -2.73837    
 BOUNDARY     44   LAYER   1   ROW     3   COL    14   RATE     0.00000    
 BOUNDARY     45   LAYER   1   ROW     3   COL    15   RATE     0.00000    
 BOUNDARY     46   LAYER   1   ROW     4   COL     1   RATE     0.00000    
 BOUNDARY     47   LAYER   1   ROW     4   COL     2   RATE    -3.76824    
 BOUNDARY     48   LAYER   1   ROW     4   COL     3   RATE    -28.8504    
 BOUNDARY     49   LAYER   1   ROW     4   COL     4   RATE   -100.0000    
 BOUNDARY     50   LAYER   1   ROW     4   COL     5   RATE   -100.0000    
 BOUNDARY     51   LAYER   1   ROW     4   COL     6   RATE   -100.0000    
 BOUNDARY     52   LAYER   1   ROW     4   COL     7   RATE   -100.0000    
 BOUNDARY     53   LAYER   1   ROW     4   COL     8   RATE   -100.0000    
 BOUNDARY     54   LAYER   1   ROW     4   COL     9   RATE   -100.0000    
 BOUNDARY     55   LAYER   1   ROW     4   COL    10   RATE   -100.0000    
 BOUNDARY     56   LAYER   1   ROW     4   COL    11   RATE   -100.0000    
 BOUNDARY     57   LAYER   1   ROW     4   COL    12   RATE    -27.0445    
 BOUNDARY     58   LAYER   1   ROW     4   COL    13   RATE    -4.18872    
 BOUNDARY     59   LAYER   1   ROW     4   COL    14   RATE     0.00000    
 BOUNDARY     60   LAYER   1   ROW     4   COL    15   RATE     0.00000    
 BOUNDARY     61   LAYER   1   ROW     5   COL     1   RATE     0.00000    
 BOUNDARY     62   LAYER   1   ROW     5   COL     2   RATE    -6.75202    
 BOUNDARY     63   LAYER   1   ROW     5   COL     3   RATE    -44.7551    
 BOUNDARY     64   LAYER   1   ROW     5   COL     4   RATE   -100.0000    
 BOUNDARY     65   LAYER   1   ROW     5   COL     5   RATE   -100.0000    
 BOUNDARY     66   LAYER   1   ROW     5   COL     6   RATE   -100.0000    
 BOUNDARY     67   LAYER   1   ROW     5   COL     7   RATE   -100.0000    
 BOUNDARY     68   LAYER   1   ROW     5   COL     8   RATE   -100.0000    
 BOUNDARY     69   LAYER   1   ROW     5   COL     9   RATE   -100.0000    
 BOUNDARY     70   LAYER   1   ROW     5   COL    10   RATE   -100.0000    
 BOUNDARY     71   LAYER   1   ROW     5   COL    11   RATE   -100.0000    
 BOUNDARY     72   LAYER   1   ROW     5   COL    12   RATE    -28.9564    
 BOUNDARY     73   LAYER   1   ROW     5   COL    13   RATE    -5.07072    
 BOUNDARY     74   LAYER   1   ROW     5   COL    14   RATE     0.00000    
 BOUNDARY     75   LAYER   1   ROW     5   COL    15   RATE     0.00000    
 BOUNDARY     76   LAYER   1   ROW     6   COL     1   RATE     0.00000    
 BOUNDARY     77   LAYER   1   ROW     6   COL     2   RATE    -5.30436    
 BOUNDARY     78   LAYER   1   ROW     6   COL     3   RATE    -48.5162    
 BOUNDARY     79   LAYER   1   ROW     6   COL     4   RATE   -100.0000    
 BOUNDARY     80   LAYER   1   ROW     6   COL     5   RATE   -100.0000    
 BOUNDARY     81   LAYER   1   ROW     6   COL     6   RATE   -100.0000    
 BOUNDARY     82   LAYER   1   ROW     6   COL     7   RATE   -100.0000    
 BOUNDARY     83   LAYER   1   ROW     6   COL     8   RATE   -100.0000    
 BOUNDARY     84   LAYER   1   ROW     6   COL     9   RATE   -100.0000    
 BOUNDARY     85   LAYER   1   ROW     6   COL    10   RATE   -100.0000    
 BOUNDARY     86   LAYER   1   ROW     6   COL    11   RATE   -100.0000    
 BOUNDARY     87   LAYER   1   ROW     6   COL    12   RATE    -29.5982    
 BOUNDARY     88   LAYER   1   ROW     6   COL    13   RATE    -5.02125    
 BOUNDARY     89   LAYER   1   ROW     6   COL    14   RATE     0.00000    
 BOUNDARY     90   LAYER   1   ROW     6   COL    15   RATE     0.00000    
 BOUNDARY     91   LAYER   1   ROW     7   COL     1   RATE     0.00000    
 BOUNDARY     92   LAYER   1   ROW     7   COL     2   RATE    -1.75782    
 BOUNDARY     93   LAYER   1   ROW     7   COL     3   RATE    -55.3034    
 BOUNDARY     94   LAYER   1   ROW     7   COL     4   RATE   -100.0000    
 BOUNDARY     95   LAYER   1   ROW     7   COL     5   RATE   -100.0000    
 BOUNDARY     96   LAYER   1   ROW     7   COL     6   RATE   -100.0000    
 BOUNDARY     97   LAYER   1   ROW     7   COL     7   RATE   -100.0000    
 BOUNDARY     98   LAYER   1   ROW     7   COL     8   RATE   -100.0000    
 BOUNDARY     99   LAYER   1   ROW     7   COL     9   RATE   -100.0000    
 BOUNDARY    100   LAYER   1   ROW     7   COL    10   RATE   -100.0000    
 BOUNDARY    101   LAYER   1   ROW     7   COL    11   RATE   -100.0000    
 BOUNDARY    102   LAYER   1   ROW     7   COL    12   RATE    -29.4540    
 BOUNDARY    103   LAYER   1   ROW     7   COL    13   RATE    -4.30485    
 BOUNDARY    104   LAYER   1   ROW     7   COL    14   RATE     0.00000    
 BOUNDARY    105   LAYER   1   ROW     7   COL    15   RATE     0.00000    
 BOUNDARY    106   LAYER   1   ROW     8   COL     1   RATE     0.00000    
 BOUNDARY    107   LAYER   1   ROW     8   COL     2   RATE    -13.8955    
 BOUNDARY    108   LAYER   1   ROW     8   COL     3   RATE   -100.0000    
 BOUNDARY    109   LAYER   1   ROW     8   COL     4   RATE   -100.0000    
 BOUNDARY    110   LAYER   1   ROW     8   COL     5   RATE   -100.0000    
 BOUNDARY    111   LAYER   1   ROW     8   COL     6   RATE   -100.0000    
 BOUNDARY    112   LAYER   1   ROW     8   COL     7   RATE   -100.0000    
 BOUNDARY    113   LAYER   1   ROW     8   COL     8   RATE   -100.0000    
 BOUNDARY    114   LAYER   1   ROW     8   COL     9   RATE   -100.0000    
 BOUNDARY    115   LAYER   1   ROW     8   COL    10   RATE   -100.0000    
 BOUNDARY    116   LAYER   1   ROW     8   COL    11   RATE   -100.0000    
 BOUNDARY    117   LAYER   1   ROW     8   COL    12   RATE    -29.8745    
 BOUNDARY    118   LAYER   1   ROW     8   COL    13   RATE    -4.33870    
 BOUNDARY    119   LAYER   1   ROW     8   COL    14   RATE     0.00000    
 BOUNDARY    120   LAYER   1   ROW     8   COL    15   RATE     0.00000    
 BOUNDARY    121   LAYER   1   ROW     9   COL     1   RATE    -21.4993    
 BOUNDARY    122   LAYER   1   ROW     9   COL     2   RATE    -74.5536    
 BOUNDARY    123   LAYER   1   ROW     9   COL     3   RATE   -100.0000    
 BOUNDARY    124   LAYER   1   ROW     9   COL     4   RATE   -100.0000    
 BOUNDARY    125   LAYER   1   ROW     9   COL     5   RATE   -100.0000    
 BOUNDARY    126   LAYER   1   ROW     9   COL     6   RATE   -100.0000    
 BOUNDARY    127   LAYER   1   ROW     9   COL     7   RATE   -100.0000    
 BOUNDARY    128   LAYER   1   ROW     9   COL     8   RATE   -100.0000    
 BOUNDARY    129   LAYER   1   ROW     9   COL     9   RATE   -100.0000    
 BOUNDARY    130   LAYER   1   ROW     9   COL    10   RATE   -100.0000    
 BOUNDARY    131   LAYER   1   ROW     9   COL    11   RATE   -100.0000    
 BOUNDARY    132   LAYER   1   ROW     9   COL    12   RATE    -35.2791    
 BOUNDARY    133   LAYER   1   ROW     9   COL    13   RATE    -5.20020    
 BOUNDARY    134   LAYER   1   ROW     9   COL    14   RATE     0.00000    
 BOUNDARY    135   LAYER   1   ROW     9   COL    15   RATE     0.00000    
 BOUNDARY    136   LAYER   1   ROW    10   COL     1   RATE    -82.7329    
 BOUNDARY    137   LAYER   1   ROW    10   COL     2   RATE   -100.0000    
 BOUNDARY    138   LAYER   1   ROW    10   COL     3   RATE   -100.0000    
 BOUNDARY    139   LAYER   1   ROW    10   COL     4   RATE   -100.0000    
 BOUNDARY    140   LAYER   1   ROW    10   COL     5   RATE   -100.0000    
 BOUNDARY    141   LAYER   1   ROW    10   COL     6   RATE   -100.0000    
 BOUNDARY    142   LAYER   1   ROW    10   COL     7   RATE   -100.0000    
 BOUNDARY    143   LAYER   1   ROW    10   COL     8   RATE   -100.0000    
 BOUNDARY    144   LAYER   1   ROW    10   COL     9   RATE   -100.0000    
 BOUNDARY    145   LAYER   1   ROW    10   COL    10   RATE   -100.0000    
 BOUNDARY    146   LAYER   1   ROW    10   COL    11   RATE   -100.0000    
 BOUNDARY    147   LAYER   1   ROW    10   COL    12   RATE    -39.5106    
 BOUNDARY    148   LAYER   1   ROW    10   COL    13   RATE    -5.74891    
 BOUNDARY    149   LAYER   1   ROW    10   COL    14   RATE     0.00000    
 BOUNDARY    150   LAYER   1   ROW    10   COL    15   RATE     0.00000    

 HEAD WILL BE SAVED ON UNIT 1017 AT END OF TIME STEP   10, STRESS PERIOD    5
WEL   no.    1 value from time series:   0.0000     for time:  101.0     to  102.0    
WEL   no.    2 value from time series:   0.0000     for time:  101.0     to  102.0    
RIV   no.    1 value from time series:   101.00     for time:  101.0     to  102.0    
RIV   no.    2 value from time series:   101.00     for time:  101.0     to  102.0    
RIV   no.    3 value from time series:   111.50     for time:  101.0     to  102.0    
RIV   no.    4 value from time series:   111.50     for time:  101.0     to  102.0    
RIV   no.    5 value from time series:   115.10     for time:  101.0     to  102.0    
RIV   no.    6 value from time series:   115.10     for time:  101.0     to  102.0    
RIV   no.    7 value from time series:   104.00     for time:  101.0     to  102.0    
RIV   no.    8 value from time series:   104.00     for time:  101.0     to  102.0    
RIV   no.    9 value from time series:   113.50     for time:  101.0     to  102.0    
RIV   no.   10 value from time series:   113.50     for time:  101.0     to  102.0    
WEL   no.    1 value from time series:   0.0000     for time:  101.0     to  102.0    
WEL   no.    2 value from time series:   0.0000     for time:  101.0     to  102.0    
RIV   no.    1 value from time series:   101.00     for time:  101.0     to  102.0    
RIV   no.    2 value from time series:   101.00     for time:  101.0     to  102.0    
RIV   no.    3 value from time series:   111.50     for time:  101.0     to  102.0    
RIV   no.    4 value from time series:   111.50     for time:  101.0     to  102.0    
RIV   no.    5 value from time series:   115.10     for time:  101.0     to  102.0    
RIV   no.    6 value from time series:   115.10     for time:  101.0     to  102.0    
RIV   no.    7 value from time series:   104.00     for time:  101.0     to  102.0    
RIV   no.    8 value from time series:   104.00     for time:  101.0     to  102.0    
RIV   no.    9 value from time series:   113.50     for time:  101.0     to  102.0    
RIV   no.   10 value from time series:   113.50     for time:  101.0     to  102.0    

 NO OUTPUT CONTROL FOR STRESS PERIOD    5   TIME STEP   11
WEL   no.    1 value from time series:   0.0000     for time:  102.0     to  103.0    
WEL   no.    2 value from time series:   0.0000     for time:  102.0     to  103.0    
RIV   no.    1 value from time series:   101.00     for time:  102.0     to  103.0    
RIV   no.    2 value from time series:   101.00     for time:  102.0     to  103.0    
RIV   no.    3 value from time series:   111.50     for time:  102.0     to  103.0    
RIV   no.    4 value from time series:   111.50     for time:  102.0     to  103.0    
RIV   no.    5 value from time series:   115.10     for time:  102.0     to  103.0    
RIV   no.    6 value from time series:   115.10     for time:  102.0     to  103.0    
RIV   no.    7 value from time series:   104.00     for time:  102.0     to  103.0    
RIV   no.    8 value from time series:   104.00     for time:  102.0     to  103.0    
RIV   no.    9 value from time series:   113.50     for time:  102.0     to  103.0    
RIV   no.   10 value from time series:   113.50     for time:  102.0     to  103.0    
WEL   no.    1 value from time series:   0.0000     for time:  102.0     to  103.0    
WEL   no.    2 value from time series:   0.0000     for time:  102.0     to  103.0    
RIV   no.    1 value from time series:   101.00     for time:  102.0     to  103.0    
RIV   no.    2 value from time series:   101.00     for time:  102.0     to  103.0    
RIV   no.    3 value from time series:   111.50     for time:  102.0     to  103.0    
RIV   no.    4 value from time series:   111.50     for time:  102.0     to  103.0    
RIV   no.    5 value from time series:   115.10     for time:  102.0     to  103.0    
RIV   no.    6 value from time series:   115.10     for time:  102.0     to  103.0    
RIV   no.    7 value from time series:   104.00     for time:  102.0     to  103.0    
RIV   no.    8 value from time series:   104.00     for time:  102.0     to  103.0    
RIV   no.    9 value from time series:   113.50     for time:  102.0     to  103.0    
RIV   no.   10 value from time series:   113.50     for time:  102.0     to  103.0    

 NO OUTPUT CONTROL FOR STRESS PERIOD    5   TIME STEP   12
WEL   no.    1 value from time series:   0.0000     for time:  103.0     to  104.0    
WEL   no.    2 value from time series:   0.0000     for time:  103.0     to  104.0    
RIV   no.    1 value from time series:   101.00     for time:  103.0     to  104.0    
RIV   no.    2 value from time series:   101.00     for time:  103.0     to  104.0    
RIV   no.    3 value from time series:   111.50     for time:  103.0     to  104.0    
RIV   no.    4 value from time series:   111.50     for time:  103.0     to  104.0    
RIV   no.    5 value from time series:   115.10     for time:  103.0     to  104.0    
RIV   no.    6 value from time series:   115.10     for time:  103.0     to  104.0    
RIV   no.    7 value from time series:   104.00     for time:  103.0     to  104.0    
RIV   no.    8 value from time series:   104.00     for time:  103.0     to  104.0    
RIV   no.    9 value from time series:   113.50     for time:  103.0     to  104.0    
RIV   no.   10 value from time series:   113.50     for time:  103.0     to  104.0    
WEL   no.    1 value from time series:   0.0000     for time:  103.0     to  104.0    
WEL   no.    2 value from time series:   0.0000     for time:  103.0     to  104.0    
RIV   no.    1 value from time series:   101.00     for time:  103.0     to  104.0    
RIV   no.    2 value from time series:   101.00     for time:  103.0     to  104.0    
RIV   no.    3 value from time series:   111.50     for time:  103.0     to  104.0    
RIV   no.    4 value from time series:   111.50     for time:  103.0     to  104.0    
RIV   no.    5 value from time series:   115.10     for time:  103.0     to  104.0    
RIV   no.    6 value from time series:   115.10     for time:  103.0     to  104.0    
RIV   no.    7 value from time series:   104.00     for time:  103.0     to  104.0    
RIV   no.    8 value from time series:   104.00     for time:  103.0     to  104.0    
RIV   no.    9 value from time series:   113.50     for time:  103.0     to  104.0    
RIV   no.   10 value from time series:   113.50     for time:  103.0     to  104.0    

 NO OUTPUT CONTROL FOR STRESS PERIOD    5   TIME STEP   13
WEL   no.    1 value from time series:   0.0000     for time:  104.0     to  105.0    
WEL   no.    2 value from time series:   0.0000     for time:  104.0     to  105.0    
RIV   no.    1 value from time series:   101.00     for time:  104.0     to  105.0    
RIV   no.    2 value from time series:   101.00     for time:  104.0     to  105.0    
RIV   no.    3 value from time series:   111.50     for time:  104.0     to  105.0    
RIV   no.    4 value from time series:   111.50     for time:  104.0     to  105.0    
RIV   no.    5 value from time series:   115.10     for time:  104.0     to  105.0    
RIV   no.    6 value from time series:   115.10     for time:  104.0     to  105.0    
RIV   no.    7 value from time series:   104.00     for time:  104.0     to  105.0    
RIV   no.    8 value from time series:   104.00     for time:  104.0     to  105.0    
RIV   no.    9 value from time series:   113.50     for time:  104.0     to  105.0    
RIV   no.   10 value from time series:   113.50     for time:  104.0     to  105.0    
WEL   no.    1 value from time series:   0.0000     for time:  104.0     to  105.0    
WEL   no.    2 value from time series:   0.0000     for time:  104.0     to  105.0    
RIV   no.    1 value from time series:   101.00     for time:  104.0     to  105.0    
RIV   no.    2 value from time series:   101.00     for time:  104.0     to  105.0    
RIV   no.    3 value from time series:   111.50     for time:  104.0     to  105.0    
RIV   no.    4 value from time series:   111.50     for time:  104.0     to  105.0    
RIV   no.    5 value from time series:   115.10     for time:  104.0     to  105.0    
RIV   no.    6 value from time series:   115.10     for time:  104.0     to  105.0    
RIV   no.    7 value from time series:   104.00     for time:  104.0     to  105.0    
RIV   no.    8 value from time series:   104.00     for time:  104.0     to  105.0    
RIV   no.    9 value from time series:   113.50     for time:  104.0     to  105.0    
RIV   no.   10 value from time series:   113.50     for time:  104.0     to  105.0    

 NO OUTPUT CONTROL FOR STRESS PERIOD    5   TIME STEP   14
WEL   no.    1 value from time series:   0.0000     for time:  105.0     to  106.0    
WEL   no.    2 value from time series:   0.0000     for time:  105.0     to  106.0    
RIV   no.    1 value from time series:   101.00     for time:  105.0     to  106.0    
RIV   no.    2 value from time series:   101.00     for time:  105.0     to  106.0    
RIV   no.    3 value from time series:   111.50     for time:  105.0     to  106.0    
RIV   no.    4 value from time series:   111.50     for time:  105.0     to  106.0    
RIV   no.    5 value from time series:   115.10     for time:  105.0     to  106.0    
RIV   no.    6 value from time series:   115.10     for time:  105.0     to  106.0    
RIV   no.    7 value from time series:   104.00     for time:  105.0     to  106.0    
RIV   no.    8 value from time series:   104.00     for time:  105.0     to  106.0    
RIV   no.    9 value from time series:   113.50     for time:  105.0     to  106.0    
RIV   no.   10 value from time series:   113.50     for time:  105.0     to  106.0    
WEL   no.    1 value from time series:   0.0000     for time:  105.0     to  106.0    
WEL   no.    2 value from time series:   0.0000     for time:  105.0     to  106.0    
RIV   no.    1 value from time series:   101.00     for time:  105.0     to  106.0    
RIV   no.    2 value from time series:   101.00     for time:  105.0     to  106.0    
RIV   no.    3 value from time series:   111.50     for time:  105.0     to  106.0    
RIV   no.    4 value from time series:   111.50     for time:  105.0     to  106.0    
RIV   no.    5 value from time series:   115.10     for time:  105.0     to  106.0    
RIV   no.    6 value from time series:   115.10     for time:  105.0     to  106.0    
RIV   no.    7 value from time series:   104.00     for time:  105.0     to  106.0    
RIV   no.    8 value from time series:   104.00     for time:  105.0     to  106.0    
RIV   no.    9 value from time series:   113.50     for time:  105.0     to  106.0    
RIV   no.   10 value from time series:   113.50     for time:  105.0     to  106.0    

 NO OUTPUT CONTROL FOR STRESS PERIOD    5   TIME STEP   15
WEL   no.    1 value from time series:   0.0000     for time:  106.0     to  107.0    
WEL   no.    2 value from time series:   0.0000     for time:  106.0     to  107.0    
RIV   no.    1 value from time series:   101.00     for time:  106.0     to  107.0    
RIV   no.    2 value from time series:   101.00     for time:  106.0     to  107.0    
RIV   no.    3 value from time series:   111.50     for time:  106.0     to  107.0    
RIV   no.    4 value from time series:   111.50     for time:  106.0     to  107.0    
RIV   no.    5 value from time series:   115.10     for time:  106.0     to  107.0    
RIV   no.    6 value from time series:   115.10     for time:  106.0     to  107.0    
RIV   no.    7 value from time series:   104.00     for time:  106.0     to  107.0    
RIV   no.    8 value from time series:   104.00     for time:  106.0     to  107.0    
RIV   no.    9 value from time series:   113.50     for time:  106.0     to  107.0    
RIV   no.   10 value from time series:   113.50     for time:  106.0     to  107.0    
WEL   no.    1 value from time series:   0.0000     for time:  106.0     to  107.0    
WEL   no.    2 value from time series:   0.0000     for time:  106.0     to  107.0    
RIV   no.    1 value from time series:   101.00     for time:  106.0     to  107.0    
RIV   no.    2 value from time series:   101.00     for time:  106.0     to  107.0    
RIV   no.    3 value from time series:   111.50     for time:  106.0     to  107.0    
RIV   no.    4 value from time series:   111.50     for time:  106.0     to  107.0    
RIV   no.    5 value from time series:   115.10     for time:  106.0     to  107.0    
RIV   no.    6 value from time series:   115.10     for time:  106.0     to  107.0    
RIV   no.    7 value from time series:   104.00     for time:  106.0     to  107.0    
RIV   no.    8 value from time series:   104.00     for time:  106.0     to  107.0    
RIV   no.    9 value from time series:   113.50     for time:  106.0     to  107.0    
RIV   no.   10 value from time series:   113.50     for time:  106.0     to  107.0    

 NO OUTPUT CONTROL FOR STRESS PERIOD    5   TIME STEP   16
WEL   no.    1 value from time series:   0.0000     for time:  107.0     to  108.0    
WEL   no.    2 value from time series:   0.0000     for time:  107.0     to  108.0    
RIV   no.    1 value from time series:   101.00     for time:  107.0     to  108.0    
RIV   no.    2 value from time series:   101.00     for time:  107.0     to  108.0    
RIV   no.    3 value from time series:   111.50     for time:  107.0     to  108.0    
RIV   no.    4 value from time series:   111.50     for time:  107.0     to  108.0    
RIV   no.    5 value from time series:   115.10     for time:  107.0     to  108.0    
RIV   no.    6 value from time series:   115.10     for time:  107.0     to  108.0    
RIV   no.    7 value from time series:   104.00     for time:  107.0     to  108.0    
RIV   no.    8 value from time series:   104.00     for time:  107.0     to  108.0    
RIV   no.    9 value from time series:   113.50     for time:  107.0     to  108.0    
RIV   no.   10 value from time series:   113.50     for time:  107.0     to  108.0    
WEL   no.    1 value from time series:   0.0000     for time:  107.0     to  108.0    
WEL   no.    2 value from time series:   0.0000     for time:  107.0     to  108.0    
RIV   no.    1 value from time series:   101.00     for time:  107.0     to  108.0    
RIV   no.    2 value from time series:   101.00     for time:  107.0     to  108.0    
RIV   no.    3 value from time series:   111.50     for time:  107.0     to  108.0    
RIV   no.    4 value from time series:   111.50     for time:  107.0     to  108.0    
RIV   no.    5 value from time series:   115.10     for time:  107.0     to  108.0    
RIV   no.    6 value from time series:   115.10     for time:  107.0     to  108.0    
RIV   no.    7 value from time series:   104.00     for time:  107.0     to  108.0    
RIV   no.    8 value from time series:   104.00     for time:  107.0     to  108.0    
RIV   no.    9 value from time series:   113.50     for time:  107.0     to  108.0    
RIV   no.   10 value from time series:   113.50     for time:  107.0     to  108.0    

 NO OUTPUT CONTROL FOR STRESS PERIOD    5   TIME STEP   17
WEL   no.    1 value from time series:   0.0000     for time:  108.0     to  109.0    
WEL   no.    2 value from time series:   0.0000     for time:  108.0     to  109.0    
RIV   no.    1 value from time series:   101.00     for time:  108.0     to  109.0    
RIV   no.    2 value from time series:   101.00     for time:  108.0     to  109.0    
RIV   no.    3 value from time series:   111.50     for time:  108.0     to  109.0    
RIV   no.    4 value from time series:   111.50     for time:  108.0     to  109.0    
RIV   no.    5 value from time series:   115.10     for time:  108.0     to  109.0    
RIV   no.    6 value from time series:   115.10     for time:  108.0     to  109.0    
RIV   no.    7 value from time series:   104.00     for time:  108.0     to  109.0    
RIV   no.    8 value from time series:   104.00     for time:  108.0     to  109.0    
RIV   no.    9 value from time series:   113.50     for time:  108.0     to  109.0    
RIV   no.   10 value from time series:   113.50     for time:  108.0     to  109.0    
WEL   no.    1 value from time series:   0.0000     for time:  108.0     to  109.0    
WEL   no.    2 value from time series:   0.0000     for time:  108.0     to  109.0    
RIV   no.    1 value from time series:   101.00     for time:  108.0     to  109.0    
RIV   no.    2 value from time series:   101.00     for time:  108.0     to  109.0    
RIV   no.    3 value from time series:   111.50     for time:  108.0     to  109.0    
RIV   no.    4 value from time series:   111.50     for time:  108.0     to  109.0    
RIV   no.    5 value from time series:   115.10     for time:  108.0     to  109.0    
RIV   no.    6 value from time series:   115.10     for time:  108.0     to  109.0    
RIV   no.    7 value from time series:   104.00     for time:  108.0     to  109.0    
RIV   no.    8 value from time series:   104.00     for time:  108.0     to  109.0    
RIV   no.    9 value from time series:   113.50     for time:  108.0     to  109.0    
RIV   no.   10 value from time series:   113.50     for time:  108.0     to  109.0    

 NO OUTPUT CONTROL FOR STRESS PERIOD    5   TIME STEP   18
WEL   no.    1 value from time series:   0.0000     for time:  109.0     to  110.0    
WEL   no.    2 value from time series:   0.0000     for time:  109.0     to  110.0    
RIV   no.    1 value from time series:   101.00     for time:  109.0     to  110.0    
RIV   no.    2 value from time series:   101.00     for time:  109.0     to  110.0    
RIV   no.    3 value from time series:   111.50     for time:  109.0     to  110.0    
RIV   no.    4 value from time series:   111.50     for time:  109.0     to  110.0    
RIV   no.    5 value from time series:   115.10     for time:  109.0     to  110.0    
RIV   no.    6 value from time series:   115.10     for time:  109.0     to  110.0    
RIV   no.    7 value from time series:   104.00     for time:  109.0     to  110.0    
RIV   no.    8 value from time series:   104.00     for time:  109.0     to  110.0    
RIV   no.    9 value from time series:   113.50     for time:  109.0     to  110.0    
RIV   no.   10 value from time series:   113.50     for time:  109.0     to  110.0    
WEL   no.    1 value from time series:   0.0000     for time:  109.0     to  110.0    
WEL   no.    2 value from time series:   0.0000     for time:  109.0     to  110.0    
RIV   no.    1 value from time series:   101.00     for time:  109.0     to  110.0    
RIV   no.    2 value from time series:   101.00     for time:  109.0     to  110.0    
RIV   no.    3 value from time series:   111.50     for time:  109.0     to  110.0    
RIV   no.    4 value from time series:   111.50     for time:  109.0     to  110.0    
RIV   no.    5 value from time series:   115.10     for time:  109.0     to  110.0    
RIV   no.    6 value from time series:   115.10     for time:  109.0     to  110.0    
RIV   no.    7 value from time series:   104.00     for time:  109.0     to  110.0    
RIV   no.    8 value from time series:   104.00     for time:  109.0     to  110.0    
RIV   no.    9 value from time series:   113.50     for time:  109.0     to  110.0    
RIV   no.   10 value from time series:   113.50     for time:  109.0     to  110.0    

 NO OUTPUT CONTROL FOR STRESS PERIOD    5   TIME STEP   19
WEL   no.    1 value from time series:   0.0000     for time:  110.0     to  111.0    
WEL   no.    2 value from time series:   0.0000     for time:  110.0     to  111.0    
RIV   no.    1 value from time series:   101.00     for time:  110.0     to  111.0    
RIV   no.    2 value from time series:   101.00     for time:  110.0     to  111.0    
RIV   no.    3 value from time series:   111.50     for time:  110.0     to  111.0    
RIV   no.    4 value from time series:   111.50     for time:  110.0     to  111.0    
RIV   no.    5 value from time series:   115.10     for time:  110.0     to  111.0    
RIV   no.    6 value from time series:   115.10     for time:  110.0     to  111.0    
RIV   no.    7 value from time series:   104.00     for time:  110.0     to  111.0    
RIV   no.    8 value from time series:   104.00     for time:  110.0     to  111.0    
RIV   no.    9 value from time series:   113.50     for time:  110.0     to  111.0    
RIV   no.   10 value from time series:   113.50     for time:  110.0     to  111.0    
WEL   no.    1 value from time series:   0.0000     for time:  110.0     to  111.0    
WEL   no.    2 value from time series:   0.0000     for time:  110.0     to  111.0    
RIV   no.    1 value from time series:   101.00     for time:  110.0     to  111.0    
RIV   no.    2 value from time series:   101.00     for time:  110.0     to  111.0    
RIV   no.    3 value from time series:   111.50     for time:  110.0     to  111.0    
RIV   no.    4 value from time series:   111.50     for time:  110.0     to  111.0    
RIV   no.    5 value from time series:   115.10     for time:  110.0     to  111.0    
RIV   no.    6 value from time series:   115.10     for time:  110.0     to  111.0    
RIV   no.    7 value from time series:   104.00     for time:  110.0     to  111.0    
RIV   no.    8 value from time series:   104.00     for time:  110.0     to  111.0    
RIV   no.    9 value from time series:   113.50     for time:  110.0     to  111.0    
RIV   no.   10 value from time series:   113.50     for time:  110.0     to  111.0    

 NO OUTPUT CONTROL FOR STRESS PERIOD    5   TIME STEP   20
WEL   no.    1 value from time series:   0.0000     for time:  111.0     to  112.0    
WEL   no.    2 value from time series:   0.0000     for time:  111.0     to  112.0    
RIV   no.    1 value from time series:   101.00     for time:  111.0     to  112.0    
RIV   no.    2 value from time series:   101.00     for time:  111.0     to  112.0    
RIV   no.    3 value from time series:   111.50     for time:  111.0     to  112.0    
RIV   no.    4 value from time series:   111.50     for time:  111.0     to  112.0    
RIV   no.    5 value from time series:   115.10     for time:  111.0     to  112.0    
RIV   no.    6 value from time series:   115.10     for time:  111.0     to  112.0    
RIV   no.    7 value from time series:   104.00     for time:  111.0     to  112.0    
RIV   no.    8 value from time series:   104.00     for time:  111.0     to  112.0    
RIV   no.    9 value from time series:   113.50     for time:  111.0     to  112.0    
RIV   no.   10 value from time series:   113.50     for time:  111.0     to  112.0    
WEL   no.    1 value from time series:   0.0000     for time:  111.0     to  112.0    
WEL   no.    2 value from time series:   0.0000     for time:  111.0     to  112.0    
RIV   no.    1 value from time series:   101.00     for time:  111.0     to  112.0    
RIV   no.    2 value from time series:   101.00     for time:  111.0     to  112.0    
RIV   no.    3 value from time series:   111.50     for time:  111.0     to  112.0    
RIV   no.    4 value from time series:   111.50     for time:  111.0     to  112.0    
RIV   no.    5 value from time series:   115.10     for time:  111.0     to  112.0    
RIV   no.    6 value from time series:   115.10     for time:  111.0     to  112.0    
RIV   no.    7 value from time series:   104.00     for time:  111.0     to  112.0    
RIV   no.    8 value from time series:   104.00     for time:  111.0     to  112.0    
RIV   no.    9 value from time series:   113.50     for time:  111.0     to  112.0    
RIV   no.   10 value from time series:   113.50     for time:  111.0     to  112.0    

 NO OUTPUT CONTROL FOR STRESS PERIOD    5   TIME STEP   21
WEL   no.    1 value from time series:   0.0000     for time:  112.0     to  113.0    
WEL   no.    2 value from time series:   0.0000     for time:  112.0     to  113.0    
RIV   no.    1 value from time series:   101.00     for time:  112.0     to  113.0    
RIV   no.    2 value from time series:   101.00     for time:  112.0     to  113.0    
RIV   no.    3 value from time series:   111.50     for time:  112.0     to  113.0    
RIV   no.    4 value from time series:   111.50     for time:  112.0     to  113.0    
RIV   no.    5 value from time series:   115.10     for time:  112.0     to  113.0    
RIV   no.    6 value from time series:   115.10     for time:  112.0     to  113.0    
RIV   no.    7 value from time series:   104.00     for time:  112.0     to  113.0    
RIV   no.    8 value from time series:   104.00     for time:  112.0     to  113.0    
RIV   no.    9 value from time series:   113.50     for time:  112.0     to  113.0    
RIV   no.   10 value from time series:   113.50     for time:  112.0     to  113.0    
WEL   no.    1 value from time series:   0.0000     for time:  112.0     to  113.0    
WEL   no.    2 value from time series:   0.0000     for time:  112.0     to  113.0    
RIV   no.    1 value from time series:   101.00     for time:  112.0     to  113.0    
RIV   no.    2 value from time series:   101.00     for time:  112.0     to  113.0    
RIV   no.    3 value from time series:   111.50     for time:  112.0     to  113.0    
RIV   no.    4 value from time series:   111.50     for time:  112.0     to  113.0    
RIV   no.    5 value from time series:   115.10     for time:  112.0     to  113.0    
RIV   no.    6 value from time series:   115.10     for time:  112.0     to  113.0    
RIV   no.    7 value from time series:   104.00     for time:  112.0     to  113.0    
RIV   no.    8 value from time series:   104.00     for time:  112.0     to  113.0    
RIV   no.    9 value from time series:   113.50     for time:  112.0     to  113.0    
RIV   no.   10 value from time series:   113.50     for time:  112.0     to  113.0    

 NO OUTPUT CONTROL FOR STRESS PERIOD    5   TIME STEP   22
WEL   no.    1 value from time series:   0.0000     for time:  113.0     to  114.0    
WEL   no.    2 value from time series:   0.0000     for time:  113.0     to  114.0    
RIV   no.    1 value from time series:   101.00     for time:  113.0     to  114.0    
RIV   no.    2 value from time series:   101.00     for time:  113.0     to  114.0    
RIV   no.    3 value from time series:   111.50     for time:  113.0     to  114.0    
RIV   no.    4 value from time series:   111.50     for time:  113.0     to  114.0    
RIV   no.    5 value from time series:   115.10     for time:  113.0     to  114.0    
RIV   no.    6 value from time series:   115.10     for time:  113.0     to  114.0    
RIV   no.    7 value from time series:   104.00     for time:  113.0     to  114.0    
RIV   no.    8 value from time series:   104.00     for time:  113.0     to  114.0    
RIV   no.    9 value from time series:   113.50     for time:  113.0     to  114.0    
RIV   no.   10 value from time series:   113.50     for time:  113.0     to  114.0    
WEL   no.    1 value from time series:   0.0000     for time:  113.0     to  114.0    
WEL   no.    2 value from time series:   0.0000     for time:  113.0     to  114.0    
RIV   no.    1 value from time series:   101.00     for time:  113.0     to  114.0    
RIV   no.    2 value from time series:   101.00     for time:  113.0     to  114.0    
RIV   no.    3 value from time series:   111.50     for time:  113.0     to  114.0    
RIV   no.    4 value from time series:   111.50     for time:  113.0     to  114.0    
RIV   no.    5 value from time series:   115.10     for time:  113.0     to  114.0    
RIV   no.    6 value from time series:   115.10     for time:  113.0     to  114.0    
RIV   no.    7 value from time series:   104.00     for time:  113.0     to  114.0    
RIV   no.    8 value from time series:   104.00     for time:  113.0     to  114.0    
RIV   no.    9 value from time series:   113.50     for time:  113.0     to  114.0    
RIV   no.   10 value from time series:   113.50     for time:  113.0     to  114.0    

 NO OUTPUT CONTROL FOR STRESS PERIOD    5   TIME STEP   23
WEL   no.    1 value from time series:   0.0000     for time:  114.0     to  115.0    
WEL   no.    2 value from time series:   0.0000     for time:  114.0     to  115.0    
RIV   no.    1 value from time series:   101.00     for time:  114.0     to  115.0    
RIV   no.    2 value from time series:   101.00     for time:  114.0     to  115.0    
RIV   no.    3 value from time series:   111.50     for time:  114.0     to  115.0    
RIV   no.    4 value from time series:   111.50     for time:  114.0     to  115.0    
RIV   no.    5 value from time series:   115.10     for time:  114.0     to  115.0    
RIV   no.    6 value from time series:   115.10     for time:  114.0     to  115.0    
RIV   no.    7 value from time series:   104.00     for time:  114.0     to  115.0    
RIV   no.    8 value from time series:   104.00     for time:  114.0     to  115.0    
RIV   no.    9 value from time series:   113.50     for time:  114.0     to  115.0    
RIV   no.   10 value from time series:   113.50     for time:  114.0     to  115.0    
WEL   no.    1 value from time series:   0.0000     for time:  114.0     to  115.0    
WEL   no.    2 value from time series:   0.0000     for time:  114.0     to  115.0    
RIV   no.    1 value from time series:   101.00     for time:  114.0     to  115.0    
RIV   no.    2 value from time series:   101.00     for time:  114.0     to  115.0    
RIV   no.    3 value from time series:   111.50     for time:  114.0     to  115.0    
RIV   no.    4 value from time series:   111.50     for time:  114.0     to  115.0    
RIV   no.    5 value from time series:   115.10     for time:  114.0     to  115.0    
RIV   no.    6 value from time series:   115.10     for time:  114.0     to  115.0    
RIV   no.    7 value from time series:   104.00     for time:  114.0     to  115.0    
RIV   no.    8 value from time series:   104.00     for time:  114.0     to  115.0    
RIV   no.    9 value from time series:   113.50     for time:  114.0     to  115.0    
RIV   no.   10 value from time series:   113.50     for time:  114.0     to  115.0    

 NO OUTPUT CONTROL FOR STRESS PERIOD    5   TIME STEP   24
WEL   no.    1 value from time series:   0.0000     for time:  115.0     to  116.0    
WEL   no.    2 value from time series:   0.0000     for time:  115.0     to  116.0    
RIV   no.    1 value from time series:   101.00     for time:  115.0     to  116.0    
RIV   no.    2 value from time series:   101.00     for time:  115.0     to  116.0    
RIV   no.    3 value from time series:   111.50     for time:  115.0     to  116.0    
RIV   no.    4 value from time series:   111.50     for time:  115.0     to  116.0    
RIV   no.    5 value from time series:   115.10     for time:  115.0     to  116.0    
RIV   no.    6 value from time series:   115.10     for time:  115.0     to  116.0    
RIV   no.    7 value from time series:   104.00     for time:  115.0     to  116.0    
RIV   no.    8 value from time series:   104.00     for time:  115.0     to  116.0    
RIV   no.    9 value from time series:   113.50     for time:  115.0     to  116.0    
RIV   no.   10 value from time series:   113.50     for time:  115.0     to  116.0    
WEL   no.    1 value from time series:   0.0000     for time:  115.0     to  116.0    
WEL   no.    2 value from time series:   0.0000     for time:  115.0     to  116.0    
RIV   no.    1 value from time series:   101.00     for time:  115.0     to  116.0    
RIV   no.    2 value from time series:   101.00     for time:  115.0     to  116.0    
RIV   no.    3 value from time series:   111.50     for time:  115.0     to  116.0    
RIV   no.    4 value from time series:   111.50     for time:  115.0     to  116.0    
RIV   no.    5 value from time series:   115.10     for time:  115.0     to  116.0    
RIV   no.    6 value from time series:   115.10     for time:  115.0     to  116.0    
RIV   no.    7 value from time series:   104.00     for time:  115.0     to  116.0    
RIV   no.    8 value from time series:   104.00     for time:  115.0     to  116.0    
RIV   no.    9 value from time series:   113.50     for time:  115.0     to  116.0    
RIV   no.   10 value from time series:   113.50     for time:  115.0     to  116.0    

 NO OUTPUT CONTROL FOR STRESS PERIOD    5   TIME STEP   25
WEL   no.    1 value from time series:   0.0000     for time:  116.0     to  117.0    
WEL   no.    2 value from time series:   0.0000     for time:  116.0     to  117.0    
RIV   no.    1 value from time series:   101.00     for time:  116.0     to  117.0    
RIV   no.    2 value from time series:   101.00     for time:  116.0     to  117.0    
RIV   no.    3 value from time series:   111.50     for time:  116.0     to  117.0    
RIV   no.    4 value from time series:   111.50     for time:  116.0     to  117.0    
RIV   no.    5 value from time series:   115.10     for time:  116.0     to  117.0    
RIV   no.    6 value from time series:   115.10     for time:  116.0     to  117.0    
RIV   no.    7 value from time series:   104.00     for time:  116.0     to  117.0    
RIV   no.    8 value from time series:   104.00     for time:  116.0     to  117.0    
RIV   no.    9 value from time series:   113.50     for time:  116.0     to  117.0    
RIV   no.   10 value from time series:   113.50     for time:  116.0     to  117.0    
WEL   no.    1 value from time series:   0.0000     for time:  116.0     to  117.0    
WEL   no.    2 value from time series:   0.0000     for time:  116.0     to  117.0    
RIV   no.    1 value from time series:   101.00     for time:  116.0     to  117.0    
RIV   no.    2 value from time series:   101.00     for time:  116.0     to  117.0    
RIV   no.    3 value from time series:   111.50     for time:  116.0     to  117.0    
RIV   no.    4 value from time series:   111.50     for time:  116.0     to  117.0    
RIV   no.    5 value from time series:   115.10     for time:  116.0     to  117.0    
RIV   no.    6 value from time series:   115.10     for time:  116.0     to  117.0    
RIV   no.    7 value from time series:   104.00     for time:  116.0     to  117.0    
RIV   no.    8 value from time series:   104.00     for time:  116.0     to  117.0    
RIV   no.    9 value from time series:   113.50     for time:  116.0     to  117.0    
RIV   no.   10 value from time series:   113.50     for time:  116.0     to  117.0    

 NO OUTPUT CONTROL FOR STRESS PERIOD    5   TIME STEP   26
WEL   no.    1 value from time series:   0.0000     for time:  117.0     to  118.0    
WEL   no.    2 value from time series:   0.0000     for time:  117.0     to  118.0    
RIV   no.    1 value from time series:   101.00     for time:  117.0     to  118.0    
RIV   no.    2 value from time series:   101.00     for time:  117.0     to  118.0    
RIV   no.    3 value from time series:   111.50     for time:  117.0     to  118.0    
RIV   no.    4 value from time series:   111.50     for time:  117.0     to  118.0    
RIV   no.    5 value from time series:   115.10     for time:  117.0     to  118.0    
RIV   no.    6 value from time series:   115.10     for time:  117.0     to  118.0    
RIV   no.    7 value from time series:   104.00     for time:  117.0     to  118.0    
RIV   no.    8 value from time series:   104.00     for time:  117.0     to  118.0    
RIV   no.    9 value from time series:   113.50     for time:  117.0     to  118.0    
RIV   no.   10 value from time series:   113.50     for time:  117.0     to  118.0    
WEL   no.    1 value from time series:   0.0000     for time:  117.0     to  118.0    
WEL   no.    2 value from time series:   0.0000     for time:  117.0     to  118.0    
RIV   no.    1 value from time series:   101.00     for time:  117.0     to  118.0    
RIV   no.    2 value from time series:   101.00     for time:  117.0     to  118.0    
RIV   no.    3 value from time series:   111.50     for time:  117.0     to  118.0    
RIV   no.    4 value from time series:   111.50     for time:  117.0     to  118.0    
RIV   no.    5 value from time series:   115.10     for time:  117.0     to  118.0    
RIV   no.    6 value from time series:   115.10     for time:  117.0     to  118.0    
RIV   no.    7 value from time series:   104.00     for time:  117.0     to  118.0    
RIV   no.    8 value from time series:   104.00     for time:  117.0     to  118.0    
RIV   no.    9 value from time series:   113.50     for time:  117.0     to  118.0    
RIV   no.   10 value from time series:   113.50     for time:  117.0     to  118.0    

 NO OUTPUT CONTROL FOR STRESS PERIOD    5   TIME STEP   27
WEL   no.    1 value from time series:   0.0000     for time:  118.0     to  119.0    
WEL   no.    2 value from time series:   0.0000     for time:  118.0     to  119.0    
RIV   no.    1 value from time series:   101.00     for time:  118.0     to  119.0    
RIV   no.    2 value from time series:   101.00     for time:  118.0     to  119.0    
RIV   no.    3 value from time series:   111.50     for time:  118.0     to  119.0    
RIV   no.    4 value from time series:   111.50     for time:  118.0     to  119.0    
RIV   no.    5 value from time series:   115.10     for time:  118.0     to  119.0    
RIV   no.    6 value from time series:   115.10     for time:  118.0     to  119.0    
RIV   no.    7 value from time series:   104.00     for time:  118.0     to  119.0    
RIV   no.    8 value from time series:   104.00     for time:  118.0     to  119.0    
RIV   no.    9 value from time series:   113.50     for time:  118.0     to  119.0    
RIV   no.   10 value from time series:   113.50     for time:  118.0     to  119.0    
WEL   no.    1 value from time series:   0.0000     for time:  118.0     to  119.0    
WEL   no.    2 value from time series:   0.0000     for time:  118.0     to  119.0    
RIV   no.    1 value from time series:   101.00     for time:  118.0     to  119.0    
RIV   no.    2 value from time series:   101.00     for time:  118.0     to  119.0    
RIV   no.    3 value from time series:   111.50     for time:  118.0     to  119.0    
RIV   no.    4 value from time series:   111.50     for time:  118.0     to  119.0    
RIV   no.    5 value from time series:   115.10     for time:  118.0     to  119.0    
RIV   no.    6 value from time series:   115.10     for time:  118.0     to  119.0    
RIV   no.    7 value from time series:   104.00     for time:  118.0     to  119.0    
RIV   no.    8 value from time series:   104.00     for time:  118.0     to  119.0    
RIV   no.    9 value from time series:   113.50     for time:  118.0     to  119.0    
RIV   no.   10 value from time series:   113.50     for time:  118.0     to  119.0    

 NO OUTPUT CONTROL FOR STRESS PERIOD    5   TIME STEP   28
WEL   no.    1 value from time series:  -500.00     for time:  119.0     to  120.0    
WEL   no.    2 value from time series:   0.0000     for time:  119.0     to  120.0    
RIV   no.    1 value from time series:   101.00     for time:  119.0     to  120.0    
RIV   no.    2 value from time series:   101.00     for time:  119.0     to  120.0    
RIV   no.    3 value from time series:   111.50     for time:  119.0     to  120.0    
RIV   no.    4 value from time series:   111.50     for time:  119.0     to  120.0    
RIV   no.    5 value from time series:   115.10     for time:  119.0     to  120.0    
RIV   no.    6 value from time series:   115.10     for time:  119.0     to  120.0    
RIV   no.    7 value from time series:   104.00     for time:  119.0     to  120.0    
RIV   no.    8 value from time series:   104.00     for time:  119.0     to  120.0    
RIV   no.    9 value from time series:   113.50     for time:  119.0     to  120.0    
RIV   no.   10 value from time series:   113.50     for time:  119.0     to  120.0    
WEL   no.    1 value from time series:  -500.00     for time:  119.0     to  120.0    
WEL   no.    2 value from time series:   0.0000     for time:  119.0     to  120.0    
RIV   no.    1 value from time series:   101.00     for time:  119.0     to  120.0    
RIV   no.    2 value from time series:   101.00     for time:  119.0     to  120.0    
RIV   no.    3 value from time series:   111.50     for time:  119.0     to  120.0    
RIV   no.    4 value from time series:   111.50     for time:  119.0     to  120.0    
RIV   no.    5 value from time series:   115.10     for time:  119.0     to  120.0    
RIV   no.    6 value from time series:   115.10     for time:  119.0     to  120.0    
RIV   no.    7 value from time series:   104.00     for time:  119.0     to  120.0    
RIV   no.    8 value from time series:   104.00     for time:  119.0     to  120.0    
RIV   no.    9 value from time series:   113.50     for time:  119.0     to  120.0    
RIV   no.   10 value from time series:   113.50     for time:  119.0     to  120.0    

 NO OUTPUT CONTROL FOR STRESS PERIOD    5   TIME STEP   29
WEL   no.    1 value from time series:  -1500.0     for time:  120.0     to  121.0    
WEL   no.    2 value from time series:   0.0000     for time:  120.0     to  121.0    
RIV   no.    1 value from time series:   101.00     for time:  120.0     to  121.0    
RIV   no.    2 value from time series:   101.00     for time:  120.0     to  121.0    
RIV   no.    3 value from time series:   111.50     for time:  120.0     to  121.0    
RIV   no.    4 value from time series:   111.50     for time:  120.0     to  121.0    
RIV   no.    5 value from time series:   115.10     for time:  120.0     to  121.0    
RIV   no.    6 value from time series:   115.10     for time:  120.0     to  121.0    
RIV   no.    7 value from time series:   104.00     for time:  120.0     to  121.0    
RIV   no.    8 value from time series:   104.00     for time:  120.0     to  121.0    
RIV   no.    9 value from time series:   113.50     for time:  120.0     to  121.0    
RIV   no.   10 value from time series:   113.50     for time:  120.0     to  121.0    

 RchArraySeries           =  3.700000E-03 FOR LAYER   1
WEL   no.    1 value from time series:  -1500.0     for time:  120.0     to  121.0    
WEL   no.    2 value from time series:   0.0000     for time:  120.0     to  121.0    
RIV   no.    1 value from time series:   101.00     for time:  120.0     to  121.0    
RIV   no.    2 value from time series:   101.00     for time:  120.0     to  121.0    
RIV   no.    3 value from time series:   111.50     for time:  120.0     to  121.0    
RIV   no.    4 value from time series:   111.50     for time:  120.0     to  121.0    
RIV   no.    5 value from time series:   115.10     for time:  120.0     to  121.0    
RIV   no.    6 value from time series:   115.10     for time:  120.0     to  121.0    
RIV   no.    7 value from time series:   104.00     for time:  120.0     to  121.0    
RIV   no.    8 value from time series:   104.00     for time:  120.0     to  121.0    
RIV   no.    9 value from time series:   113.50     for time:  120.0     to  121.0    
RIV   no.   10 value from time series:   113.50     for time:  120.0     to  121.0    

 OUTPUT CONTROL FOR STRESS PERIOD    5   TIME STEP   30
    PRINT BUDGET
    SAVE BUDGET
    SAVE HEAD
    SAVE HEAD FOR ALL LAYERS
 UBDSV1 SAVING          STORAGE ON UNIT   1016 AT TIME STEP     30, STRESS PERIOD      5
 UBDSV1 SAVING FLOW RIGHT FACE  ON UNIT   1016 AT TIME STEP     30, STRESS PERIOD      5
 UBDSV1 SAVING FLOW FRONT FACE  ON UNIT   1016 AT TIME STEP     30, STRESS PERIOD      5
 UBDSV1 SAVING FLOW LOWER FACE  ON UNIT   1016 AT TIME STEP     30, STRESS PERIOD      5
 UBDSV4 SAVING WELLS NEAR RIVER ON UNIT   1016 AT TIME STEP     30, STRESS PERIOD      5

 WELLS NEAR RIVER   PERIOD  5   STEP 30
 BOUNDARY      1   LAYER   2   ROW     8   COL     4   RATE    -1500.00      WELL_2
 BOUNDARY      2   LAYER   2   ROW     3   COL     4   RATE     0.00000      WELL_1
 UBDSV4 SAVING RIVER            ON UNIT   1016 AT TIME STEP     30, STRESS PERIOD      5

 RIVER              PERIOD  5   STEP 30
 BOUNDARY      1   LAYER   1   ROW     1   COL    15   RATE    -4987.33    
 BOUNDARY      2   LAYER   1   ROW     2   COL    15   RATE    -6113.76      RIV2
 BOUNDARY      3   LAYER   1   ROW     3   COL    15   RATE    -2379.27      RIV3
 BOUNDARY      4   LAYER   1   ROW     4   COL    15   RATE    -3843.95    
 BOUNDARY      5   LAYER   1   ROW     5   COL    15   RATE    -2480.53    
 BOUNDARY      6   LAYER   1   ROW     6   COL    15   RATE    -1827.43    
 BOUNDARY      7   LAYER   1   ROW     7   COL    15   RATE    -6313.06      RIVX
 BOUNDARY      8   LAYER   1   ROW     8   COL    15   RATE    -6163.18      RIVX
 BOUNDARY      9   LAYER   1   ROW     9   COL    15   RATE    -2372.92      RIVX
 BOUNDARY     10   LAYER   1   ROW    10   COL    15   RATE    -3279.96    

 GHB LAKES          PERIOD  5   STEP 30
 BOUNDARY      1   LAYER   1   ROW     3   COL     1   RATE    -14919.1    
 BOUNDARY      2   LAYER   1   ROW     7   COL     1   RATE    -2197.91      GHB2_UPPER
 BOUNDARY      3   LAYER   1   ROW     7   COL     1   RATE    -13363.0      GHB2_LOWER
 UBDSV4 SAVING RECHARGE         ON UNIT   1016 AT TIME STEP     30, STRESS PERIOD      5

 RECHARGE           PERIOD  5   STEP 30
 BOUNDARY      1   LAYER   1   ROW     1   COL     1   RATE     825.833    
 BOUNDARY      2   LAYER   1   ROW     1   COL     2   RATE     825.833    
 BOUNDARY      3   LAYER   1   ROW     1   COL     3   RATE     825.833    
 BOUNDARY      4   LAYER   1   ROW     1   COL     4   RATE     825.833    
 BOUNDARY      5   LAYER   1   ROW     1   COL     5   RATE     825.833    
 BOUNDARY      6   LAYER   1   ROW     1   COL     6   RATE     825.833    
 BOUNDARY      7   LAYER   1   ROW     1   COL     7   RATE     825.833    
 BOUNDARY      8   LAYER   1   ROW     1   COL     8   RATE     825.833    
 BOUNDARY      9   LAYER   1   ROW     1   COL     9   RATE     825.833    
 BOUNDARY     10   LAYER   1   ROW     1   COL    10   RATE     825.833    
 BOUNDARY     11   LAYER   1   ROW     1   COL    11   RATE     825.833    
 BOUNDARY     12   LAYER   1   ROW     1   COL    12   RATE     825.833    
 BOUNDARY     13   LAYER   1   ROW     1   COL    13   RATE     825.833    
 BOUNDARY     14   LAYER   1   ROW     1   COL    14   RATE     825.833    
 BOUNDARY     15   LAYER   1   ROW     1   COL    15   RATE     825.833    
 BOUNDARY     16   LAYER   1   ROW     2   COL     1   RATE     825.833    
 BOUNDARY     17   LAYER   1   ROW     2   COL     2   RATE     825.833    
 BOUNDARY     18   LAYER   1   ROW     2   COL     3   RATE     825.833    
 BOUNDARY     19   LAYER   1   ROW     2   COL     4   RATE     825.833    
 BOUNDARY     20   LAYER   1   ROW     2   COL     5   RATE     825.833    
 BOUNDARY     21   LAYER   1   ROW     2   COL     6   RATE     825.833    
 BOUNDARY     22   LAYER   1   ROW     2   COL     7   RATE     825.833    
 BOUNDARY     23   LAYER   1   ROW     2   COL     8   RATE     825.833    
 BOUNDARY     24   LAYER   1   ROW     2   COL     9   RATE     825.833    
 BOUNDARY     25   LAYER   1   ROW     2   COL    10   RATE     825.833    
 BOUNDARY     26   LAYER   1   ROW     2   COL    11   RATE     825.833    
 BOUNDARY     27   LAYER   1   ROW     2   COL    12   RATE     825.833    
 BOUNDARY     28   LAYER   1   ROW     2   COL    13   RATE     825.833    
 BOUNDARY     29   LAYER   1   ROW     2   COL    14   RATE     825.833    
 BOUNDARY     30   LAYER   1   ROW     2   COL    15   RATE     825.833    
 BOUNDARY     31   LAYER   1   ROW     3   COL     1   RATE     825.833    
 BOUNDARY     32   LAYER   1   ROW     3   COL     2   RATE     825.833    
 BOUNDARY     33   LAYER   1   ROW     3   COL     3   RATE     825.833    
 BOUNDARY     34   LAYER   1   ROW     3   COL     4   RATE     825.833    
 BOUNDARY     35   LAYER   1   ROW     3   COL     5   RATE     825.833    
 BOUNDARY     36   LAYER   1   ROW     3   COL     6   RATE     825.833    
 BOUNDARY     37   LAYER   1   ROW     3   COL     7   RATE     825.833    
 BOUNDARY     38   LAYER   1   ROW     3   COL     8   RATE     825.833    
 BOUNDARY     39   LAYER   1   ROW     3   COL     9   RATE     825.833    
 BOUNDARY     40   LAYER   1   ROW     3   COL    10   RATE     825.833    
 BOUNDARY     41   LAYER   1   ROW     3   COL    11   RATE     825.833    
 BOUNDARY     42   LAYER   1   ROW     3   COL    12   RATE     825.833    
 BOUNDARY     43   LAYER   1   ROW     3   COL    13   RATE     825.833    
 BOUNDARY     44   LAYER   1   ROW     3   COL    14   RATE     825.833    
 BOUNDARY     45   LAYER   1   ROW     3   COL    15   RATE     825.833    
 BOUNDARY     46   LAYER   1   ROW     4   COL     1   RATE     825.833    
 BOUNDARY     47   LAYER   1   ROW     4   COL     2   RATE     825.833    
 BOUNDARY     48   LAYER   1   ROW     4   COL     3   RATE     825.833    
 BOUNDARY     49   LAYER   1   ROW     4   COL     4   RATE     825.833    
 BOUNDARY     50   LAYER   1   ROW     4   COL     5   RATE     825.833    
 BOUNDARY     51   LAYER   1   ROW     4   COL     6   RATE     825.833    
 BOUNDARY     52   LAYER   1   ROW     4   COL     7   RATE     825.833    
 BOUNDARY     53   LAYER   1   ROW     4   COL     8   RATE     825.833    
 BOUNDARY     54   LAYER   1   ROW     4   COL     9   RATE     825.833    
 BOUNDARY     55   LAYER   1   ROW     4   COL    10   RATE     825.833    
 BOUNDARY     56   LAYER   1   ROW     4   COL    11   RATE     825.833    
 BOUNDARY     57   LAYER   1   ROW     4   COL    12   RATE     825.833    
 BOUNDARY     58   LAYER   1   ROW     4   COL    13   RATE     825.833    
 BOUNDARY     59   LAYER   1   ROW     4   COL    14   RATE     825.833    
 BOUNDARY     60   LAYER   1   ROW     4   COL    15   RATE     825.833    
 BOUNDARY     61   LAYER   1   ROW     5   COL     1   RATE     825.833    
 BOUNDARY     62   LAYER   1   ROW     5   COL     2   RATE     825.833    
 BOUNDARY     63   LAYER   1   ROW     5   COL     3   RATE     825.833    
 BOUNDARY     64   LAYER   1   ROW     5   COL     4   RATE     825.833    
 BOUNDARY     65   LAYER   1   ROW     5   COL     5   RATE     825.833    
 BOUNDARY     66   LAYER   1   ROW     5   COL     6   RATE     825.833    
 BOUNDARY     67   LAYER   1   ROW     5   COL     7   RATE     825.833    
 BOUNDARY     68   LAYER   1   ROW     5   COL     8   RATE     825.833    
 BOUNDARY     69   LAYER   1   ROW     5   COL     9   RATE     825.833    
 BOUNDARY     70   LAYER   1   ROW     5   COL    10   RATE     825.833    
 BOUNDARY     71   LAYER   1   ROW     5   COL    11   RATE     825.833    
 BOUNDARY     72   LAYER   1   ROW     5   COL    12   RATE     825.833    
 BOUNDARY     73   LAYER   1   ROW     5   COL    13   RATE     825.833    
 BOUNDARY     74   LAYER   1   ROW     5   COL    14   RATE     825.833    
 BOUNDARY     75   LAYER   1   ROW     5   COL    15   RATE     825.833    
 BOUNDARY     76   LAYER   1   ROW     6   COL     1   RATE     825.833    
 BOUNDARY     77   LAYER   1   ROW     6   COL     2   RATE     825.833    
 BOUNDARY     78   LAYER   1   ROW     6   COL     3   RATE     825.833    
 BOUNDARY     79   LAYER   1   ROW     6   COL     4   RATE     825.833    
 BOUNDARY     80   LAYER   1   ROW     6   COL     5   RATE     825.833    
 BOUNDARY     81   LAYER   1   ROW     6   COL     6   RATE     825.833    
 BOUNDARY     82   LAYER   1   ROW     6   COL     7   RATE     825.833    
 BOUNDARY     83   LAYER   1   ROW     6   COL     8   RATE     825.833    
 BOUNDARY     84   LAYER   1   ROW     6   COL     9   RATE     825.833    
 BOUNDARY     85   LAYER   1   ROW     6   COL    10   RATE     825.833    
 BOUNDARY     86   LAYER   1   ROW     6   COL    11   RATE     825.833    
 BOUNDARY     87   LAYER   1   ROW     6   COL    12   RATE     825.833    
 BOUNDARY     88   LAYER   1   ROW     6   COL    13   RATE     825.833    
 BOUNDARY     89   LAYER   1   ROW     6   COL    14   RATE     825.833    
 BOUNDARY     90   LAYER   1   ROW     6   COL    15   RATE     825.833    
 BOUNDARY     91   LAYER   1   ROW     7   COL     1   RATE     825.833    
 BOUNDARY     92   LAYER   1   ROW     7   COL     2   RATE     825.833    
 BOUNDARY     93   LAYER   1   ROW     7   COL     3   RATE     825.833    
 BOUNDARY     94   LAYER   1   ROW     7   COL     4   RATE     825.833    
 BOUNDARY     95   LAYER   1   ROW     7   COL     5   RATE     825.833    
 BOUNDARY     96   LAYER   1   ROW     7   COL     6   RATE     825.833    
 BOUNDARY     97   LAYER   1   ROW     7   COL     7   RATE     825.833    
 BOUNDARY     98   LAYER   1   ROW     7   COL     8   RATE     825.833    
 BOUNDARY     99   LAYER   1   ROW     7   COL     9   RATE     825.833    
 BOUNDARY    100   LAYER   1   ROW     7   COL    10   RATE     825.833    
 BOUNDARY    101   LAYER   1   ROW     7   COL    11   RATE     825.833    
 BOUNDARY    102   LAYER   1   ROW     7   COL    12   RATE     825.833    
 BOUNDARY    103   LAYER   1   ROW     7   COL    13   RATE     825.833    
 BOUNDARY    104   LAYER   1   ROW     7   COL    14   RATE     825.833    
 BOUNDARY    105   LAYER   1   ROW     7   COL    15   RATE     825.833    
 BOUNDARY    106   LAYER   1   ROW     8   COL     1   RATE     825.833    
 BOUNDARY    107   LAYER   1   ROW     8   COL     2   RATE     825.833    
 BOUNDARY    108   LAYER   1   ROW     8   COL     3   RATE     825.833    
 BOUNDARY    109   LAYER   1   ROW     8   COL     4   RATE     825.833    
 BOUNDARY    110   LAYER   1   ROW     8   COL     5   RATE     825.833    
 BOUNDARY    111   LAYER   1   ROW     8   COL     6   RATE     825.833    
 BOUNDARY    112   LAYER   1   ROW     8   COL     7   RATE     825.833    
 BOUNDARY    113   LAYER   1   ROW     8   COL     8   RATE     825.833    
 BOUNDARY    114   LAYER   1   ROW     8   COL     9   RATE     825.833    
 BOUNDARY    115   LAYER   1   ROW     8   COL    10   RATE     825.833    
 BOUNDARY    116   LAYER   1   ROW     8   COL    11   RATE     825.833    
 BOUNDARY    117   LAYER   1   ROW     8   COL    12   RATE     825.833    
 BOUNDARY    118   LAYER   1   ROW     8   COL    13   RATE     825.833    
 BOUNDARY    119   LAYER   1   ROW     8   COL    14   RATE     825.833    
 BOUNDARY    120   LAYER   1   ROW     8   COL    15   RATE     825.833    
 BOUNDARY    121   LAYER   1   ROW     9   COL     1   RATE     825.833    
 BOUNDARY    122   LAYER   1   ROW     9   COL     2   RATE     825.833    
 BOUNDARY    123   LAYER   1   ROW     9   COL     3   RATE     825.833    
 BOUNDARY    124   LAYER   1   ROW     9   COL     4   RATE     825.833    
 BOUNDARY    125   LAYER   1   ROW     9   COL     5   RATE     825.833    
 BOUNDARY    126   LAYER   1   ROW     9   COL     6   RATE     825.833    
 BOUNDARY    127   LAYER   1   ROW     9   COL     7   RATE     825.833    
 BOUNDARY    128   LAYER   1   ROW     9   COL     8   RATE     825.833    
 BOUNDARY    129   LAYER   1   ROW     9   COL     9   RATE     825.833    
 BOUNDARY    130   LAYER   1   ROW     9   COL    10   RATE     825.833    
 BOUNDARY    131   LAYER   1   ROW     9   COL    11   RATE     825.833    
 BOUNDARY    132   LAYER   1   ROW     9   COL    12   RATE     825.833    
 BOUNDARY    133   LAYER   1   ROW     9   COL    13   RATE     825.833    
 BOUNDARY    134   LAYER   1   ROW     9   COL    14   RATE     825.833    
 BOUNDARY    135   LAYER   1   ROW     9   COL    15   RATE     825.833    
 BOUNDARY    136   LAYER   1   ROW    10   COL     1   RATE     825.833    
 BOUNDARY    137   LAYER   1   ROW    10   COL     2   RATE     825.833    
 BOUNDARY    138   LAYER   1   ROW    10   COL     3   RATE     825.833    
 BOUNDARY    139   LAYER   1   ROW    10   COL     4   RATE     825.833    
 BOUNDARY    140   LAYER   1   ROW    10   COL     5   RATE     825.833    
 BOUNDARY    141   LAYER   1   ROW    10   COL     6   RATE     825.833    
 BOUNDARY    142   LAYER   1   ROW    10   COL     7   RATE     825.833    
 BOUNDARY    143   LAYER   1   ROW    10   COL     8   RATE     825.833    
 BOUNDARY    144   LAYER   1   ROW    10   COL     9   RATE     825.833    
 BOUNDARY    145   LAYER   1   ROW    10   COL    10   RATE     825.833    
 BOUNDARY    146   LAYER   1   ROW    10   COL    11   RATE     825.833    
 BOUNDARY    147   LAYER   1   ROW    10   COL    12   RATE     825.833    
 BOUNDARY    148   LAYER   1   ROW    10   COL    13   RATE     825.833    
 BOUNDARY    149   LAYER   1   ROW    10   COL    14   RATE     825.833    
 BOUNDARY    150   LAYER   1   ROW    10   COL    15   RATE     825.833    
 UBDSV4 SAVING ET SEGS          ON UNIT   1016 AT TIME STEP     30, STRESS PERIOD      5

 ET SEGS            PERIOD  5   STEP 30
 BOUNDARY      1   LAYER   1   ROW     1   COL     1   RATE    -3.39411    
 BOUNDARY      2   LAYER   1   ROW     1   COL     2   RATE    -10.8577    
 BOUNDARY      3   LAYER   1   ROW     1   COL     3   RATE    -70.8364    
 BOUNDARY      4   LAYER   1   ROW     1   COL     4   RATE   -100.0000    
 BOUNDARY      5   LAYER   1   ROW     1   COL     5   RATE   -100.0000    
 BOUNDARY      6   LAYER   1   ROW     1   COL     6   RATE   -100.0000    
 BOUNDARY      7   LAYER   1   ROW     1   COL     7   RATE   -100.0000    
 BOUNDARY      8   LAYER   1   ROW     1   COL     8   RATE   -100.0000    
 BOUNDARY      9   LAYER   1   ROW     1   COL     9   RATE   -100.0000    
 BOUNDARY     10   LAYER   1   ROW     1   COL    10   RATE   -100.0000    
 BOUNDARY     11   LAYER   1   ROW     1   COL    11   RATE   -100.0000    
 BOUNDARY     12   LAYER   1   ROW     1   COL    12   RATE    -21.1048    
 BOUNDARY     13   LAYER   1   ROW     1   COL    13   RATE   -0.400623    
 BOUNDARY     14   LAYER   1   ROW     1   COL    14   RATE     0.00000    
 BOUNDARY     15   LAYER   1   ROW     1   COL    15   RATE     0.00000    
 BOUNDARY     16   LAYER   1   ROW     2   COL     1   RATE     0.00000    
 BOUNDARY     17   LAYER   1   ROW     2   COL     2   RATE    -5.71495    
 BOUNDARY     18   LAYER   1   ROW     2   COL     3   RATE    -42.7296    
 BOUNDARY     19   LAYER   1   ROW     2   COL     4   RATE   -100.0000    
 BOUNDARY     20   LAYER   1   ROW     2   COL     5   RATE   -100.0000    
 BOUNDARY     21   LAYER   1   ROW     2   COL     6   RATE   -100.0000    
 BOUNDARY     22   LAYER   1   ROW     2   COL     7   RATE   -100.0000    
 BOUNDARY     23   LAYER   1   ROW     2   COL     8   RATE   -100.0000    
 BOUNDARY     24   LAYER   1   ROW     2   COL     9   RATE   -100.0000    
 BOUNDARY     25   LAYER   1   ROW     2   COL    10   RATE   -100.0000    
 BOUNDARY     26   LAYER   1   ROW     2   COL    11   RATE   -100.0000    
 BOUNDARY     27   LAYER   1   ROW     2   COL    12   RATE    -22.8482    
 BOUNDARY     28   LAYER   1   ROW     2   COL    13   RATE    -1.38636    
 BOUNDARY     29   LAYER   1   ROW     2   COL    14   RATE     0.00000    
 BOUNDARY     30   LAYER   1   ROW     2   COL    15   RATE     0.00000    
 BOUNDARY     31   LAYER   1   ROW     3   COL     1   RATE     0.00000    
 BOUNDARY     32   LAYER   1   ROW     3   COL     2   RATE     0.00000    
 BOUNDARY     33   LAYER   1   ROW     3   COL     3   RATE    -26.4433    
 BOUNDARY     34   LAYER   1   ROW     3   COL     4   RATE   -100.0000    
 BOUNDARY     35   LAYER   1   ROW     3   COL     5   RATE   -100.0000    
 BOUNDARY     36   LAYER   1   ROW     3   COL     6   RATE   -100.0000    
 BOUNDARY     37   LAYER   1   ROW     3   COL     7   RATE   -100.0000    
 BOUNDARY     38   LAYER   1   ROW     3   COL     8   RATE   -100.0000    
 BOUNDARY     39   LAYER   1   ROW     3   COL     9   RATE   -100.0000    
 BOUNDARY     40   LAYER   1   ROW     3   COL    10   RATE   -100.0000    
 BOUNDARY     41   LAYER   1   ROW     3   COL    11   RATE   -100.0000    
 BOUNDARY     42   LAYER   1   ROW     3   COL    12   RATE    -25.7848    
 BOUNDARY     43   LAYER   1   ROW     3   COL    13   RATE    -3.18119    
 BOUNDARY     44   LAYER   1   ROW     3   COL    14   RATE     0.00000    
 BOUNDARY     45   LAYER   1   ROW     3   COL    15   RATE     0.00000    
 BOUNDARY     46   LAYER   1   ROW     4   COL     1   RATE     0.00000    
 BOUNDARY     47   LAYER   1   ROW     4   COL     2   RATE    -4.20403    
 BOUNDARY     48   LAYER   1   ROW     4   COL     3   RATE    -31.8207    
 BOUNDARY     49   LAYER   1   ROW     4   COL     4   RATE   -100.0000    
 BOUNDARY     50   LAYER   1   ROW     4   COL     5   RATE   -100.0000    
 BOUNDARY     51   LAYER   1   ROW     4   COL     6   RATE   -100.0000    
 BOUNDARY     52   LAYER   1   ROW     4   COL     7   RATE   -100.0000    
 BOUNDARY     53   LAYER   1   ROW     4   COL     8   RATE   -100.0000    
 BOUNDARY     54   LAYER   1   ROW     4   COL     9   RATE   -100.0000    
 BOUNDARY     55   LAYER   1   ROW     4   COL    10   RATE   -100.0000    
 BOUNDARY     56   LAYER   1   ROW     4   COL    11   RATE   -100.0000    
 BOUNDARY     57   LAYER   1   ROW     4   COL    12   RATE    -28.5659    
 BOUNDARY     58   LAYER   1   ROW     4   COL    13   RATE    -4.62937    
 BOUNDARY     59   LAYER   1   ROW     4   COL    14   RATE     0.00000    
 BOUNDARY     60   LAYER   1   ROW     4   COL    15   RATE     0.00000    
 BOUNDARY     61   LAYER   1   ROW     5   COL     1   RATE     0.00000    
 BOUNDARY     62   LAYER   1   ROW     5   COL     2   RATE    -7.19411    
 BOUNDARY     63   LAYER   1   ROW     5   COL     3   RATE    -52.5008    
 BOUNDARY     64   LAYER   1   ROW     5   COL     4   RATE   -100.0000    
 BOUNDARY     65   LAYER   1   ROW     5   COL     5   RATE   -100.0000    
 BOUNDARY     66   LAYER   1   ROW     5   COL     6   RATE   -100.0000    
 BOUNDARY     67   LAYER   1   ROW     5   COL     7   RATE   -100.0000    
 BOUNDARY     68   LAYER   1   ROW     5   COL     8   RATE   -100.0000    
 BOUNDARY     69   LAYER   1   ROW     5   COL     9   RATE   -100.0000    
 BOUNDARY     70   LAYER   1   ROW     5   COL    10   RATE   -100.0000    
 BOUNDARY     71   LAYER   1   ROW     5   COL    11   RATE   -100.0000    
 BOUNDARY     72   LAYER   1   ROW     5   COL    12   RATE    -32.4658    
 BOUNDARY     73   LAYER   1   ROW     5   COL    13   RATE    -5.50748    
 BOUNDARY     74   LAYER   1   ROW     5   COL    14   RATE     0.00000    
 BOUNDARY     75   LAYER   1   ROW     5   COL    15   RATE     0.00000    
 BOUNDARY     76   LAYER   1   ROW     6   COL     1   RATE     0.00000    
 BOUNDARY     77   LAYER   1   ROW     6   COL     2   RATE    -5.73477    
 BOUNDARY     78   LAYER   1   ROW     6   COL     3   RATE    -56.1900    
 BOUNDARY     79   LAYER   1   ROW     6   COL     4   RATE   -100.0000    
 BOUNDARY     80   LAYER   1   ROW     6   COL     5   RATE   -100.0000    
 BOUNDARY     81   LAYER   1   ROW     6   COL     6   RATE   -100.0000    
 BOUNDARY     82   LAYER   1   ROW     6   COL     7   RATE   -100.0000    
 BOUNDARY     83   LAYER   1   ROW     6   COL     8   RATE   -100.0000    
 BOUNDARY     84   LAYER   1   ROW     6   COL     9   RATE   -100.0000    
 BOUNDARY     85   LAYER   1   ROW     6   COL    10   RATE   -100.0000    
 BOUNDARY     86   LAYER   1   ROW     6   COL    11   RATE   -100.0000    
 BOUNDARY     87   LAYER   1   ROW     6   COL    12   RATE    -35.7961    
 BOUNDARY     88   LAYER   1   ROW     6   COL    13   RATE    -5.45662    
 BOUNDARY     89   LAYER   1   ROW     6   COL    14   RATE     0.00000    
 BOUNDARY     90   LAYER   1   ROW     6   COL    15   RATE     0.00000    
 BOUNDARY     91   LAYER   1   ROW     7   COL     1   RATE     0.00000    
 BOUNDARY     92   LAYER   1   ROW     7   COL     2   RATE    -2.15914    
 BOUNDARY     93   LAYER   1   ROW     7   COL     3   RATE    -62.9159    
 BOUNDARY     94   LAYER   1   ROW     7   COL     4   RATE   -100.0000    
 BOUNDARY     95   LAYER   1   ROW     7   COL     5   RATE   -100.0000    
 BOUNDARY     96   LAYER   1   ROW     7   COL     6   RATE   -100.0000    
 BOUNDARY     97   LAYER   1   ROW     7   COL     7   RATE   -100.0000    
 BOUNDARY     98   LAYER   1   ROW     7   COL     8   RATE   -100.0000    
 BOUNDARY     99   LAYER   1   ROW     7   COL     9   RATE   -100.0000    
 BOUNDARY    100   LAYER   1   ROW     7   COL    10   RATE   -100.0000    
 BOUNDARY    101   LAYER   1   ROW     7   COL    11   RATE   -100.0000    
 BOUNDARY    102   LAYER   1   ROW     7   COL    12   RATE    -35.0711    
 BOUNDARY    103   LAYER   1   ROW     7   COL    13   RATE    -4.74391    
 BOUNDARY    104   LAYER   1   ROW     7   COL    14   RATE     0.00000    
 BOUNDARY    105   LAYER   1   ROW     7   COL    15   RATE     0.00000    
 BOUNDARY    106   LAYER   1   ROW     8   COL     1   RATE     0.00000    
 BOUNDARY    107   LAYER   1   ROW     8   COL     2   RATE    -15.3333    
 BOUNDARY    108   LAYER   1   ROW     8   COL     3   RATE   -100.0000    
 BOUNDARY    109   LAYER   1   ROW     8   COL     4   RATE   -100.0000    
 BOUNDARY    110   LAYER   1   ROW     8   COL     5   RATE   -100.0000    
 BOUNDARY    111   LAYER   1   ROW     8   COL     6   RATE   -100.0000    
 BOUNDARY    112   LAYER   1   ROW     8   COL     7   RATE   -100.0000    
 BOUNDARY    113   LAYER   1   ROW     8   COL     8   RATE   -100.0000    
 BOUNDARY    114   LAYER   1   ROW     8   COL     9   RATE   -100.0000    
 BOUNDARY    115   LAYER   1   ROW     8   COL    10   RATE   -100.0000    
 BOUNDARY    116   LAYER   1   ROW     8   COL    11   RATE   -100.0000    
 BOUNDARY    117   LAYER   1   ROW     8   COL    12   RATE    -37.3037    
 BOUNDARY    118   LAYER   1   ROW     8   COL    13   RATE    -4.78466    
 BOUNDARY    119   LAYER   1   ROW     8   COL    14   RATE     0.00000    
 BOUNDARY    120   LAYER   1   ROW     8   COL    15   RATE     0.00000    
 BOUNDARY    121   LAYER   1   ROW     9   COL     1   RATE    -22.9521    
 BOUNDARY    122   LAYER   1   ROW     9   COL     2   RATE    -82.2692    
 BOUNDARY    123   LAYER   1   ROW     9   COL     3   RATE   -100.0000    
 BOUNDARY    124   LAYER   1   ROW     9   COL     4   RATE   -100.0000    
 BOUNDARY    125   LAYER   1   ROW     9   COL     5   RATE   -100.0000    
 BOUNDARY    126   LAYER   1   ROW     9   COL     6   RATE   -100.0000    
 BOUNDARY    127   LAYER   1   ROW     9   COL     7   RATE   -100.0000    
 BOUNDARY    128   LAYER   1   ROW     9   COL     8   RATE   -100.0000    
 BOUNDARY    129   LAYER   1   ROW     9   COL     9   RATE   -100.0000    
 BOUNDARY    130   LAYER   1   ROW     9   COL    10   RATE   -100.0000    
 BOUNDARY    131   LAYER   1   ROW     9   COL    11   RATE   -100.0000    
 BOUNDARY    132   LAYER   1   ROW     9   COL    12   RATE    -43.2424    
 BOUNDARY    133   LAYER   1   ROW     9   COL    13   RATE    -5.65310    
 BOUNDARY    134   LAYER   1   ROW     9   COL    14   RATE     0.00000    
 BOUNDARY    135   LAYER   1   ROW     9   COL    15   RATE     0.00000    
 BOUNDARY    136   LAYER   1   ROW    10   COL     1   RATE    -90.4201    
 BOUNDARY    137   LAYER   1   ROW    10   COL     2   RATE   -100.0000    
 BOUNDARY    138   LAYER   1   ROW    10   COL     3   RATE   -100.0000    
 BOUNDARY    139   LAYER   1   ROW    10   COL     4   RATE   -100.0000    
 BOUNDARY    140   LAYER   1   ROW    10   COL     5   RATE   -100.0000    
 BOUNDARY    141   LAYER   1   ROW    10   COL     6   RATE   -100.0000    
 BOUNDARY    142   LAYER   1   ROW    10   COL     7   RATE   -100.0000    
 BOUNDARY    143   LAYER   1   ROW    10   COL     8   RATE   -100.0000    
 BOUNDARY    144   LAYER   1   ROW    10   COL     9   RATE   -100.0000    
 BOUNDARY    145   LAYER   1   ROW    10   COL    10   RATE   -100.0000    
 BOUNDARY    146   LAYER   1   ROW    10   COL    11   RATE   -100.0000    
 BOUNDARY    147   LAYER   1   ROW    10   COL    12   RATE    -47.4884    
 BOUNDARY    148   LAYER   1   ROW    10   COL    13   RATE    -6.20628    
 BOUNDARY    149   LAYER   1   ROW    10   COL    14   RATE     0.00000    
 BOUNDARY    150   LAYER   1   ROW    10   COL    15   RATE     0.00000    

 HEAD WILL BE SAVED ON UNIT 1017 AT END OF TIME STEP   30, STRESS PERIOD    5
1
  VOLUME BUDGET FOR ENTIRE MODEL AT END OF TIME STEP   30, STRESS PERIOD   5
  ------------------------------------------------------------------------------

     CUMULATIVE VOLUME      L**3       RATES FOR THIS TIME STEP      L**3/T
     ------------------                 ------------------------

           IN:                                      IN:
           ---                                      ---
             STORAGE =       53023.5568               STORAGE =        1106.3851
    WELLS NEAR RIVER =           0.0000      WELLS NEAR RIVER =           0.0000
               RIVER =           0.0000                 RIVER =           0.0000
           GHB LAKES =           0.0000             GHB LAKES =           0.0000
            RECHARGE =    11711375.0000              RECHARGE =      123875.0000
             ET SEGS =           0.0000               ET SEGS =           0.0000

            TOTAL IN =    11764398.5568              TOTAL IN =      124981.3851

          OUT:                                     OUT:
          ----                                     ----
             STORAGE =     2520771.4095               STORAGE =       43874.6715
    WELLS NEAR RIVER =        5570.0000      WELLS NEAR RIVER =        1500.0000
               RIVER =     4525625.2234                 RIVER =       39761.3823
           GHB LAKES =     3603835.7056             GHB LAKES =       30480.0402
            RECHARGE =           0.0000              RECHARGE =           0.0000
             ET SEGS =     1108596.2195               ET SEGS =        9365.2911

           TOTAL OUT =    11764398.5579             TOTAL OUT =      124981.3851

            IN - OUT =      -1.0548E-03              IN - OUT =      -6.9532E-06

 PERCENT DISCREPANCY =          -0.00     PERCENT DISCREPANCY =          -0.00






         TIME SUMMARY AT END OF TIME STEP   30 IN STRESS PERIOD    5
                    SECONDS     MINUTES      HOURS       DAYS        YEARS
                    -----------------------------------------------------------
   TIME STEP LENGTH  86400.      1440.0      24.000     1.00000     2.73785E-03
 STRESS PERIOD TIME 2.59200E+06  43200.      720.00      30.000     8.21355E-02
         TOTAL TIME 1.04544E+07 1.74240E+05  2904.0      121.00     0.33128    

 REUSING STORAGE VALUES FROM LAST STRESS PERIOD

 WEL NO.  LAYER   ROW    COL     STRESS RATE  BOUNDARY NAME         VAR1            VAR2            VAR3            
 -------------------------------------------------------------------------------------------------------------------

 REUSING RIVS FROM LAST STRESS PERIOD

 REUSING GHBS FROM LAST STRESS PERIOD

 REUSING RCHS FROM LAST STRESS PERIOD

 REUSING ETSS FROM LAST STRESS PERIOD
RIV   no.    1 value from time series:   101.00     for time:  121.0     to  122.0    
RIV   no.    2 value from time series:   101.00     for time:  121.0     to  122.0    
RIV   no.    3 value from time series:   111.50     for time:  121.0     to  122.0    
RIV   no.    4 value from time series:   111.50     for time:  121.0     to  122.0    
RIV   no.    5 value from time series:   115.10     for time:  121.0     to  122.0    
RIV   no.    6 value from time series:   115.10     for time:  121.0     to  122.0    
RIV   no.    7 value from time series:   104.00     for time:  121.0     to  122.0    
RIV   no.    8 value from time series:   104.00     for time:  121.0     to  122.0    
RIV   no.    9 value from time series:   113.50     for time:  121.0     to  122.0    
RIV   no.   10 value from time series:   113.50     for time:  121.0     to  122.0    
RIV   no.    1 value from time series:   101.00     for time:  121.0     to  122.0    
RIV   no.    2 value from time series:   101.00     for time:  121.0     to  122.0    
RIV   no.    3 value from time series:   111.50     for time:  121.0     to  122.0    
RIV   no.    4 value from time series:   111.50     for time:  121.0     to  122.0    
RIV   no.    5 value from time series:   115.10     for time:  121.0     to  122.0    
RIV   no.    6 value from time series:   115.10     for time:  121.0     to  122.0    
RIV   no.    7 value from time series:   104.00     for time:  121.0     to  122.0    
RIV   no.    8 value from time series:   104.00     for time:  121.0     to  122.0    
RIV   no.    9 value from time series:   113.50     for time:  121.0     to  122.0    
RIV   no.   10 value from time series:   113.50     for time:  121.0     to  122.0    

 OUTPUT CONTROL FOR STRESS PERIOD    6   TIME STEP    1
    SAVE BUDGET
    SAVE HEAD
    SAVE HEAD FOR ALL LAYERS
 UBDSV1 SAVING          STORAGE ON UNIT   1016 AT TIME STEP      1, STRESS PERIOD      6
 UBDSV1 SAVING FLOW RIGHT FACE  ON UNIT   1016 AT TIME STEP      1, STRESS PERIOD      6
 UBDSV1 SAVING FLOW FRONT FACE  ON UNIT   1016 AT TIME STEP      1, STRESS PERIOD      6
 UBDSV1 SAVING FLOW LOWER FACE  ON UNIT   1016 AT TIME STEP      1, STRESS PERIOD      6
 UBDSV4 SAVING WELLS NEAR RIVER ON UNIT   1016 AT TIME STEP      1, STRESS PERIOD      6
 UBDSV4 SAVING RIVER            ON UNIT   1016 AT TIME STEP      1, STRESS PERIOD      6

 RIVER              PERIOD  6   STEP  1
 BOUNDARY      1   LAYER   1   ROW     1   COL    15   RATE    -4991.79    
 BOUNDARY      2   LAYER   1   ROW     2   COL    15   RATE    -6118.29      RIV2
 BOUNDARY      3   LAYER   1   ROW     3   COL    15   RATE    -2383.74      RIV3
 BOUNDARY      4   LAYER   1   ROW     4   COL    15   RATE    -3848.47    
 BOUNDARY      5   LAYER   1   ROW     5   COL    15   RATE    -2484.99    
 BOUNDARY      6   LAYER   1   ROW     6   COL    15   RATE    -1831.87    
 BOUNDARY      7   LAYER   1   ROW     7   COL    15   RATE    -6317.65      RIVX
 BOUNDARY      8   LAYER   1   ROW     8   COL    15   RATE    -6167.84      RIVX
 BOUNDARY      9   LAYER   1   ROW     9   COL    15   RATE    -2377.55      RIVX
 BOUNDARY     10   LAYER   1   ROW    10   COL    15   RATE    -3284.66    

 GHB LAKES          PERIOD  6   STEP  1
 BOUNDARY      1   LAYER   1   ROW     3   COL     1   RATE    -14927.5    
 BOUNDARY      2   LAYER   1   ROW     7   COL     1   RATE    -2204.47      GHB2_UPPER
 BOUNDARY      3   LAYER   1   ROW     7   COL     1   RATE    -13365.3      GHB2_LOWER
 UBDSV4 SAVING RECHARGE         ON UNIT   1016 AT TIME STEP      1, STRESS PERIOD      6

 RECHARGE           PERIOD  6   STEP  1
 BOUNDARY      1   LAYER   1   ROW     1   COL     1   RATE     827.500    
 BOUNDARY      2   LAYER   1   ROW     1   COL     2   RATE     827.500    
 BOUNDARY      3   LAYER   1   ROW     1   COL     3   RATE     827.500    
 BOUNDARY      4   LAYER   1   ROW     1   COL     4   RATE     827.500    
 BOUNDARY      5   LAYER   1   ROW     1   COL     5   RATE     827.500    
 BOUNDARY      6   LAYER   1   ROW     1   COL     6   RATE     827.500    
 BOUNDARY      7   LAYER   1   ROW     1   COL     7   RATE     827.500    
 BOUNDARY      8   LAYER   1   ROW     1   COL     8   RATE     827.500    
 BOUNDARY      9   LAYER   1   ROW     1   COL     9   RATE     827.500    
 BOUNDARY     10   LAYER   1   ROW     1   COL    10   RATE     827.500    
 BOUNDARY     11   LAYER   1   ROW     1   COL    11   RATE     827.500    
 BOUNDARY     12   LAYER   1   ROW     1   COL    12   RATE     827.500    
 BOUNDARY     13   LAYER   1   ROW     1   COL    13   RATE     827.500    
 BOUNDARY     14   LAYER   1   ROW     1   COL    14   RATE     827.500    
 BOUNDARY     15   LAYER   1   ROW     1   COL    15   RATE     827.500    
 BOUNDARY     16   LAYER   1   ROW     2   COL     1   RATE     827.500    
 BOUNDARY     17   LAYER   1   ROW     2   COL     2   RATE     827.500    
 BOUNDARY     18   LAYER   1   ROW     2   COL     3   RATE     827.500    
 BOUNDARY     19   LAYER   1   ROW     2   COL     4   RATE     827.500    
 BOUNDARY     20   LAYER   1   ROW     2   COL     5   RATE     827.500    
 BOUNDARY     21   LAYER   1   ROW     2   COL     6   RATE     827.500    
 BOUNDARY     22   LAYER   1   ROW     2   COL     7   RATE     827.500    
 BOUNDARY     23   LAYER   1   ROW     2   COL     8   RATE     827.500    
 BOUNDARY     24   LAYER   1   ROW     2   COL     9   RATE     827.500    
 BOUNDARY     25   LAYER   1   ROW     2   COL    10   RATE     827.500    
 BOUNDARY     26   LAYER   1   ROW     2   COL    11   RATE     827.500    
 BOUNDARY     27   LAYER   1   ROW     2   COL    12   RATE     827.500    
 BOUNDARY     28   LAYER   1   ROW     2   COL    13   RATE     827.500    
 BOUNDARY     29   LAYER   1   ROW     2   COL    14   RATE     827.500    
 BOUNDARY     30   LAYER   1   ROW     2   COL    15   RATE     827.500    
 BOUNDARY     31   LAYER   1   ROW     3   COL     1   RATE     827.500    
 BOUNDARY     32   LAYER   1   ROW     3   COL     2   RATE     827.500    
 BOUNDARY     33   LAYER   1   ROW     3   COL     3   RATE     827.500    
 BOUNDARY     34   LAYER   1   ROW     3   COL     4   RATE     827.500    
 BOUNDARY     35   LAYER   1   ROW     3   COL     5   RATE     827.500    
 BOUNDARY     36   LAYER   1   ROW     3   COL     6   RATE     827.500    
 BOUNDARY     37   LAYER   1   ROW     3   COL     7   RATE     827.500    
 BOUNDARY     38   LAYER   1   ROW     3   COL     8   RATE     827.500    
 BOUNDARY     39   LAYER   1   ROW     3   COL     9   RATE     827.500    
 BOUNDARY     40   LAYER   1   ROW     3   COL    10   RATE     827.500    
 BOUNDARY     41   LAYER   1   ROW     3   COL    11   RATE     827.500    
 BOUNDARY     42   LAYER   1   ROW     3   COL    12   RATE     827.500    
 BOUNDARY     43   LAYER   1   ROW     3   COL    13   RATE     827.500    
 BOUNDARY     44   LAYER   1   ROW     3   COL    14   RATE     827.500    
 BOUNDARY     45   LAYER   1   ROW     3   COL    15   RATE     827.500    
 BOUNDARY     46   LAYER   1   ROW     4   COL     1   RATE     827.500    
 BOUNDARY     47   LAYER   1   ROW     4   COL     2   RATE     827.500    
 BOUNDARY     48   LAYER   1   ROW     4   COL     3   RATE     827.500    
 BOUNDARY     49   LAYER   1   ROW     4   COL     4   RATE     827.500    
 BOUNDARY     50   LAYER   1   ROW     4   COL     5   RATE     827.500    
 BOUNDARY     51   LAYER   1   ROW     4   COL     6   RATE     827.500    
 BOUNDARY     52   LAYER   1   ROW     4   COL     7   RATE     827.500    
 BOUNDARY     53   LAYER   1   ROW     4   COL     8   RATE     827.500    
 BOUNDARY     54   LAYER   1   ROW     4   COL     9   RATE     827.500    
 BOUNDARY     55   LAYER   1   ROW     4   COL    10   RATE     827.500    
 BOUNDARY     56   LAYER   1   ROW     4   COL    11   RATE     827.500    
 BOUNDARY     57   LAYER   1   ROW     4   COL    12   RATE     827.500    
 BOUNDARY     58   LAYER   1   ROW     4   COL    13   RATE     827.500    
 BOUNDARY     59   LAYER   1   ROW     4   COL    14   RATE     827.500    
 BOUNDARY     60   LAYER   1   ROW     4   COL    15   RATE     827.500    
 BOUNDARY     61   LAYER   1   ROW     5   COL     1   RATE     827.500    
 BOUNDARY     62   LAYER   1   ROW     5   COL     2   RATE     827.500    
 BOUNDARY     63   LAYER   1   ROW     5   COL     3   RATE     827.500    
 BOUNDARY     64   LAYER   1   ROW     5   COL     4   RATE     827.500    
 BOUNDARY     65   LAYER   1   ROW     5   COL     5   RATE     827.500    
 BOUNDARY     66   LAYER   1   ROW     5   COL     6   RATE     827.500    
 BOUNDARY     67   LAYER   1   ROW     5   COL     7   RATE     827.500    
 BOUNDARY     68   LAYER   1   ROW     5   COL     8   RATE     827.500    
 BOUNDARY     69   LAYER   1   ROW     5   COL     9   RATE     827.500    
 BOUNDARY     70   LAYER   1   ROW     5   COL    10   RATE     827.500    
 BOUNDARY     71   LAYER   1   ROW     5   COL    11   RATE     827.500    
 BOUNDARY     72   LAYER   1   ROW     5   COL    12   RATE     827.500    
 BOUNDARY     73   LAYER   1   ROW     5   COL    13   RATE     827.500    
 BOUNDARY     74   LAYER   1   ROW     5   COL    14   RATE     827.500    
 BOUNDARY     75   LAYER   1   ROW     5   COL    15   RATE     827.500    
 BOUNDARY     76   LAYER   1   ROW     6   COL     1   RATE     827.500    
 BOUNDARY     77   LAYER   1   ROW     6   COL     2   RATE     827.500    
 BOUNDARY     78   LAYER   1   ROW     6   COL     3   RATE     827.500    
 BOUNDARY     79   LAYER   1   ROW     6   COL     4   RATE     827.500    
 BOUNDARY     80   LAYER   1   ROW     6   COL     5   RATE     827.500    
 BOUNDARY     81   LAYER   1   ROW     6   COL     6   RATE     827.500    
 BOUNDARY     82   LAYER   1   ROW     6   COL     7   RATE     827.500    
 BOUNDARY     83   LAYER   1   ROW     6   COL     8   RATE     827.500    
 BOUNDARY     84   LAYER   1   ROW     6   COL     9   RATE     827.500    
 BOUNDARY     85   LAYER   1   ROW     6   COL    10   RATE     827.500    
 BOUNDARY     86   LAYER   1   ROW     6   COL    11   RATE     827.500    
 BOUNDARY     87   LAYER   1   ROW     6   COL    12   RATE     827.500    
 BOUNDARY     88   LAYER   1   ROW     6   COL    13   RATE     827.500    
 BOUNDARY     89   LAYER   1   ROW     6   COL    14   RATE     827.500    
 BOUNDARY     90   LAYER   1   ROW     6   COL    15   RATE     827.500    
 BOUNDARY     91   LAYER   1   ROW     7   COL     1   RATE     827.500    
 BOUNDARY     92   LAYER   1   ROW     7   COL     2   RATE     827.500    
 BOUNDARY     93   LAYER   1   ROW     7   COL     3   RATE     827.500    
 BOUNDARY     94   LAYER   1   ROW     7   COL     4   RATE     827.500    
 BOUNDARY     95   LAYER   1   ROW     7   COL     5   RATE     827.500    
 BOUNDARY     96   LAYER   1   ROW     7   COL     6   RATE     827.500    
 BOUNDARY     97   LAYER   1   ROW     7   COL     7   RATE     827.500    
 BOUNDARY     98   LAYER   1   ROW     7   COL     8   RATE     827.500    
 BOUNDARY     99   LAYER   1   ROW     7   COL     9   RATE     827.500    
 BOUNDARY    100   LAYER   1   ROW     7   COL    10   RATE     827.500    
 BOUNDARY    101   LAYER   1   ROW     7   COL    11   RATE     827.500    
 BOUNDARY    102   LAYER   1   ROW     7   COL    12   RATE     827.500    
 BOUNDARY    103   LAYER   1   ROW     7   COL    13   RATE     827.500    
 BOUNDARY    104   LAYER   1   ROW     7   COL    14   RATE     827.500    
 BOUNDARY    105   LAYER   1   ROW     7   COL    15   RATE     827.500    
 BOUNDARY    106   LAYER   1   ROW     8   COL     1   RATE     827.500    
 BOUNDARY    107   LAYER   1   ROW     8   COL     2   RATE     827.500    
 BOUNDARY    108   LAYER   1   ROW     8   COL     3   RATE     827.500    
 BOUNDARY    109   LAYER   1   ROW     8   COL     4   RATE     827.500    
 BOUNDARY    110   LAYER   1   ROW     8   COL     5   RATE     827.500    
 BOUNDARY    111   LAYER   1   ROW     8   COL     6   RATE     827.500    
 BOUNDARY    112   LAYER   1   ROW     8   COL     7   RATE     827.500    
 BOUNDARY    113   LAYER   1   ROW     8   COL     8   RATE     827.500    
 BOUNDARY    114   LAYER   1   ROW     8   COL     9   RATE     827.500    
 BOUNDARY    115   LAYER   1   ROW     8   COL    10   RATE     827.500    
 BOUNDARY    116   LAYER   1   ROW     8   COL    11   RATE     827.500    
 BOUNDARY    117   LAYER   1   ROW     8   COL    12   RATE     827.500    
 BOUNDARY    118   LAYER   1   ROW     8   COL    13   RATE     827.500    
 BOUNDARY    119   LAYER   1   ROW     8   COL    14   RATE     827.500    
 BOUNDARY    120   LAYER   1   ROW     8   COL    15   RATE     827.500    
 BOUNDARY    121   LAYER   1   ROW     9   COL     1   RATE     827.500    
 BOUNDARY    122   LAYER   1   ROW     9   COL     2   RATE     827.500    
 BOUNDARY    123   LAYER   1   ROW     9   COL     3   RATE     827.500    
 BOUNDARY    124   LAYER   1   ROW     9   COL     4   RATE     827.500    
 BOUNDARY    125   LAYER   1   ROW     9   COL     5   RATE     827.500    
 BOUNDARY    126   LAYER   1   ROW     9   COL     6   RATE     827.500    
 BOUNDARY    127   LAYER   1   ROW     9   COL     7   RATE     827.500    
 BOUNDARY    128   LAYER   1   ROW     9   COL     8   RATE     827.500    
 BOUNDARY    129   LAYER   1   ROW     9   COL     9   RATE     827.500    
 BOUNDARY    130   LAYER   1   ROW     9   COL    10   RATE     827.500    
 BOUNDARY    131   LAYER   1   ROW     9   COL    11   RATE     827.500    
 BOUNDARY    132   LAYER   1   ROW     9   COL    12   RATE     827.500    
 BOUNDARY    133   LAYER   1   ROW     9   COL    13   RATE     827.500    
 BOUNDARY    134   LAYER   1   ROW     9   COL    14   RATE     827.500    
 BOUNDARY    135   LAYER   1   ROW     9   COL    15   RATE     827.500    
 BOUNDARY    136   LAYER   1   ROW    10   COL     1   RATE     827.500    
 BOUNDARY    137   LAYER   1   ROW    10   COL     2   RATE     827.500    
 BOUNDARY    138   LAYER   1   ROW    10   COL     3   RATE     827.500    
 BOUNDARY    139   LAYER   1   ROW    10   COL     4   RATE     827.500    
 BOUNDARY    140   LAYER   1   ROW    10   COL     5   RATE     827.500    
 BOUNDARY    141   LAYER   1   ROW    10   COL     6   RATE     827.500    
 BOUNDARY    142   LAYER   1   ROW    10   COL     7   RATE     827.500    
 BOUNDARY    143   LAYER   1   ROW    10   COL     8   RATE     827.500    
 BOUNDARY    144   LAYER   1   ROW    10   COL     9   RATE     827.500    
 BOUNDARY    145   LAYER   1   ROW    10   COL    10   RATE     827.500    
 BOUNDARY    146   LAYER   1   ROW    10   COL    11   RATE     827.500    
 BOUNDARY    147   LAYER   1   ROW    10   COL    12   RATE     827.500    
 BOUNDARY    148   LAYER   1   ROW    10   COL    13   RATE     827.500    
 BOUNDARY    149   LAYER   1   ROW    10   COL    14   RATE     827.500    
 BOUNDARY    150   LAYER   1   ROW    10   COL    15   RATE     827.500    
 UBDSV4 SAVING ET SEGS          ON UNIT   1016 AT TIME STEP      1, STRESS PERIOD      6

 ET SEGS            PERIOD  6   STEP  1
 BOUNDARY      1   LAYER   1   ROW     1   COL     1   RATE    -3.41846    
 BOUNDARY      2   LAYER   1   ROW     1   COL     2   RATE    -10.9402    
 BOUNDARY      3   LAYER   1   ROW     1   COL     3   RATE    -71.2675    
 BOUNDARY      4   LAYER   1   ROW     1   COL     4   RATE   -100.0000    
 BOUNDARY      5   LAYER   1   ROW     1   COL     5   RATE   -100.0000    
 BOUNDARY      6   LAYER   1   ROW     1   COL     6   RATE   -100.0000    
 BOUNDARY      7   LAYER   1   ROW     1   COL     7   RATE   -100.0000    
 BOUNDARY      8   LAYER   1   ROW     1   COL     8   RATE   -100.0000    
 BOUNDARY      9   LAYER   1   ROW     1   COL     9   RATE   -100.0000    
 BOUNDARY     10   LAYER   1   ROW     1   COL    10   RATE   -100.0000    
 BOUNDARY     11   LAYER   1   ROW     1   COL    11   RATE   -100.0000    
 BOUNDARY     12   LAYER   1   ROW     1   COL    12   RATE    -21.1890    
 BOUNDARY     13   LAYER   1   ROW     1   COL    13   RATE   -0.424918    
 BOUNDARY     14   LAYER   1   ROW     1   COL    14   RATE     0.00000    
 BOUNDARY     15   LAYER   1   ROW     1   COL    15   RATE     0.00000    
 BOUNDARY     16   LAYER   1   ROW     2   COL     1   RATE     0.00000    
 BOUNDARY     17   LAYER   1   ROW     2   COL     2   RATE    -5.73909    
 BOUNDARY     18   LAYER   1   ROW     2   COL     3   RATE    -43.1607    
 BOUNDARY     19   LAYER   1   ROW     2   COL     4   RATE   -100.0000    
 BOUNDARY     20   LAYER   1   ROW     2   COL     5   RATE   -100.0000    
 BOUNDARY     21   LAYER   1   ROW     2   COL     6   RATE   -100.0000    
 BOUNDARY     22   LAYER   1   ROW     2   COL     7   RATE   -100.0000    
 BOUNDARY     23   LAYER   1   ROW     2   COL     8   RATE   -100.0000    
 BOUNDARY     24   LAYER   1   ROW     2   COL     9   RATE   -100.0000    
 BOUNDARY     25   LAYER   1   ROW     2   COL    10   RATE   -100.0000    
 BOUNDARY     26   LAYER   1   ROW     2   COL    11   RATE   -100.0000    
 BOUNDARY     27   LAYER   1   ROW     2   COL    12   RATE    -22.9324    
 BOUNDARY     28   LAYER   1   ROW     2   COL    13   RATE    -1.41069    
 BOUNDARY     29   LAYER   1   ROW     2   COL    14   RATE     0.00000    
 BOUNDARY     30   LAYER   1   ROW     2   COL    15   RATE     0.00000    
 BOUNDARY     31   LAYER   1   ROW     3   COL     1   RATE     0.00000    
 BOUNDARY     32   LAYER   1   ROW     3   COL     2   RATE     0.00000    
 BOUNDARY     33   LAYER   1   ROW     3   COL     3   RATE    -26.5256    
 BOUNDARY     34   LAYER   1   ROW     3   COL     4   RATE   -100.0000    
 BOUNDARY     35   LAYER   1   ROW     3   COL     5   RATE   -100.0000    
 BOUNDARY     36   LAYER   1   ROW     3   COL     6   RATE   -100.0000    
 BOUNDARY     37   LAYER   1   ROW     3   COL     7   RATE   -100.0000    
 BOUNDARY     38   LAYER   1   ROW     3   COL     8   RATE   -100.0000    
 BOUNDARY     39   LAYER   1   ROW     3   COL     9   RATE   -100.0000    
 BOUNDARY     40   LAYER   1   ROW     3   COL    10   RATE   -100.0000    
 BOUNDARY     41   LAYER   1   ROW     3   COL    11   RATE   -100.0000    
 BOUNDARY     42   LAYER   1   ROW     3   COL    12   RATE    -25.8690    
 BOUNDARY     43   LAYER   1   ROW     3   COL    13   RATE    -3.20551    
 BOUNDARY     44   LAYER   1   ROW     3   COL    14   RATE     0.00000    
 BOUNDARY     45   LAYER   1   ROW     3   COL    15   RATE     0.00000    
 BOUNDARY     46   LAYER   1   ROW     4   COL     1   RATE     0.00000    
 BOUNDARY     47   LAYER   1   ROW     4   COL     2   RATE    -4.22803    
 BOUNDARY     48   LAYER   1   ROW     4   COL     3   RATE    -32.2528    
 BOUNDARY     49   LAYER   1   ROW     4   COL     4   RATE   -100.0000    
 BOUNDARY     50   LAYER   1   ROW     4   COL     5   RATE   -100.0000    
 BOUNDARY     51   LAYER   1   ROW     4   COL     6   RATE   -100.0000    
 BOUNDARY     52   LAYER   1   ROW     4   COL     7   RATE   -100.0000    
 BOUNDARY     53   LAYER   1   ROW     4   COL     8   RATE   -100.0000    
 BOUNDARY     54   LAYER   1   ROW     4   COL     9   RATE   -100.0000    
 BOUNDARY     55   LAYER   1   ROW     4   COL    10   RATE   -100.0000    
 BOUNDARY     56   LAYER   1   ROW     4   COL    11   RATE   -100.0000    
 BOUNDARY     57   LAYER   1   ROW     4   COL    12   RATE    -28.6499    
 BOUNDARY     58   LAYER   1   ROW     4   COL    13   RATE    -4.65359    
 BOUNDARY     59   LAYER   1   ROW     4   COL    14   RATE     0.00000    
 BOUNDARY     60   LAYER   1   ROW     4   COL    15   RATE     0.00000    
 BOUNDARY     61   LAYER   1   ROW     5   COL     1   RATE     0.00000    
 BOUNDARY     62   LAYER   1   ROW     5   COL     2   RATE    -7.21846    
 BOUNDARY     63   LAYER   1   ROW     5   COL     3   RATE    -52.9276    
 BOUNDARY     64   LAYER   1   ROW     5   COL     4   RATE   -100.0000    
 BOUNDARY     65   LAYER   1   ROW     5   COL     5   RATE   -100.0000    
 BOUNDARY     66   LAYER   1   ROW     5   COL     6   RATE   -100.0000    
 BOUNDARY     67   LAYER   1   ROW     5   COL     7   RATE   -100.0000    
 BOUNDARY     68   LAYER   1   ROW     5   COL     8   RATE   -100.0000    
 BOUNDARY     69   LAYER   1   ROW     5   COL     9   RATE   -100.0000    
 BOUNDARY     70   LAYER   1   ROW     5   COL    10   RATE   -100.0000    
 BOUNDARY     71   LAYER   1   ROW     5   COL    11   RATE   -100.0000    
 BOUNDARY     72   LAYER   1   ROW     5   COL    12   RATE    -32.9023    
 BOUNDARY     73   LAYER   1   ROW     5   COL    13   RATE    -5.53153    
 BOUNDARY     74   LAYER   1   ROW     5   COL    14   RATE     0.00000    
 BOUNDARY     75   LAYER   1   ROW     5   COL    15   RATE     0.00000    
 BOUNDARY     76   LAYER   1   ROW     6   COL     1   RATE     0.00000    
 BOUNDARY     77   LAYER   1   ROW     6   COL     2   RATE    -5.75837    
 BOUNDARY     78   LAYER   1   ROW     6   COL     3   RATE    -56.6090    
 BOUNDARY     79   LAYER   1   ROW     6   COL     4   RATE   -100.0000    
 BOUNDARY     80   LAYER   1   ROW     6   COL     5   RATE   -100.0000    
 BOUNDARY     81   LAYER   1   ROW     6   COL     6   RATE   -100.0000    
 BOUNDARY     82   LAYER   1   ROW     6   COL     7   RATE   -100.0000    
 BOUNDARY     83   LAYER   1   ROW     6   COL     8   RATE   -100.0000    
 BOUNDARY     84   LAYER   1   ROW     6   COL     9   RATE   -100.0000    
 BOUNDARY     85   LAYER   1   ROW     6   COL    10   RATE   -100.0000    
 BOUNDARY     86   LAYER   1   ROW     6   COL    11   RATE   -100.0000    
 BOUNDARY     87   LAYER   1   ROW     6   COL    12   RATE    -36.2300    
 BOUNDARY     88   LAYER   1   ROW     6   COL    13   RATE    -5.48061    
 BOUNDARY     89   LAYER   1   ROW     6   COL    14   RATE     0.00000    
 BOUNDARY     90   LAYER   1   ROW     6   COL    15   RATE     0.00000    
 BOUNDARY     91   LAYER   1   ROW     7   COL     1   RATE     0.00000    
 BOUNDARY     92   LAYER   1   ROW     7   COL     2   RATE    -2.18091    
 BOUNDARY     93   LAYER   1   ROW     7   COL     3   RATE    -63.3209    
 BOUNDARY     94   LAYER   1   ROW     7   COL     4   RATE   -100.0000    
 BOUNDARY     95   LAYER   1   ROW     7   COL     5   RATE   -100.0000    
 BOUNDARY     96   LAYER   1   ROW     7   COL     6   RATE   -100.0000    
 BOUNDARY     97   LAYER   1   ROW     7   COL     7   RATE   -100.0000    
 BOUNDARY     98   LAYER   1   ROW     7   COL     8   RATE   -100.0000    
 BOUNDARY     99   LAYER   1   ROW     7   COL     9   RATE   -100.0000    
 BOUNDARY    100   LAYER   1   ROW     7   COL    10   RATE   -100.0000    
 BOUNDARY    101   LAYER   1   ROW     7   COL    11   RATE   -100.0000    
 BOUNDARY    102   LAYER   1   ROW     7   COL    12   RATE    -35.5063    
 BOUNDARY    103   LAYER   1   ROW     7   COL    13   RATE    -4.76808    
 BOUNDARY    104   LAYER   1   ROW     7   COL    14   RATE     0.00000    
 BOUNDARY    105   LAYER   1   ROW     7   COL    15   RATE     0.00000    
 BOUNDARY    106   LAYER   1   ROW     8   COL     1   RATE     0.00000    
 BOUNDARY    107   LAYER   1   ROW     8   COL     2   RATE    -15.4109    
 BOUNDARY    108   LAYER   1   ROW     8   COL     3   RATE   -100.0000    
 BOUNDARY    109   LAYER   1   ROW     8   COL     4   RATE   -100.0000    
 BOUNDARY    110   LAYER   1   ROW     8   COL     5   RATE   -100.0000    
 BOUNDARY    111   LAYER   1   ROW     8   COL     6   RATE   -100.0000    
 BOUNDARY    112   LAYER   1   ROW     8   COL     7   RATE   -100.0000    
 BOUNDARY    113   LAYER   1   ROW     8   COL     8   RATE   -100.0000    
 BOUNDARY    114   LAYER   1   ROW     8   COL     9   RATE   -100.0000    
 BOUNDARY    115   LAYER   1   ROW     8   COL    10   RATE   -100.0000    
 BOUNDARY    116   LAYER   1   ROW     8   COL    11   RATE   -100.0000    
 BOUNDARY    117   LAYER   1   ROW     8   COL    12   RATE    -37.7402    
 BOUNDARY    118   LAYER   1   ROW     8   COL    13   RATE    -4.80912    
 BOUNDARY    119   LAYER   1   ROW     8   COL    14   RATE     0.00000    
 BOUNDARY    120   LAYER   1   ROW     8   COL    15   RATE     0.00000    
 BOUNDARY    121   LAYER   1   ROW     9   COL     1   RATE    -23.0319    
 BOUNDARY    122   LAYER   1   ROW     9   COL     2   RATE    -82.6905    
 BOUNDARY    123   LAYER   1   ROW     9   COL     3   RATE   -100.0000    
 BOUNDARY    124   LAYER   1   ROW     9   COL     4   RATE   -100.0000    
 BOUNDARY    125   LAYER   1   ROW     9   COL     5   RATE   -100.0000    
 BOUNDARY    126   LAYER   1   ROW     9   COL     6   RATE   -100.0000    
 BOUNDARY    127   LAYER   1   ROW     9   COL     7   RATE   -100.0000    
 BOUNDARY    128   LAYER   1   ROW     9   COL     8   RATE   -100.0000    
 BOUNDARY    129   LAYER   1   ROW     9   COL     9   RATE   -100.0000    
 BOUNDARY    130   LAYER   1   ROW     9   COL    10   RATE   -100.0000    
 BOUNDARY    131   LAYER   1   ROW     9   COL    11   RATE   -100.0000    
 BOUNDARY    132   LAYER   1   ROW     9   COL    12   RATE    -43.6797    
 BOUNDARY    133   LAYER   1   ROW     9   COL    13   RATE    -5.67785    
 BOUNDARY    134   LAYER   1   ROW     9   COL    14   RATE     0.00000    
 BOUNDARY    135   LAYER   1   ROW     9   COL    15   RATE     0.00000    
 BOUNDARY    136   LAYER   1   ROW    10   COL     1   RATE    -90.8437    
 BOUNDARY    137   LAYER   1   ROW    10   COL     2   RATE   -100.0000    
 BOUNDARY    138   LAYER   1   ROW    10   COL     3   RATE   -100.0000    
 BOUNDARY    139   LAYER   1   ROW    10   COL     4   RATE   -100.0000    
 BOUNDARY    140   LAYER   1   ROW    10   COL     5   RATE   -100.0000    
 BOUNDARY    141   LAYER   1   ROW    10   COL     6   RATE   -100.0000    
 BOUNDARY    142   LAYER   1   ROW    10   COL     7   RATE   -100.0000    
 BOUNDARY    143   LAYER   1   ROW    10   COL     8   RATE   -100.0000    
 BOUNDARY    144   LAYER   1   ROW    10   COL     9   RATE   -100.0000    
 BOUNDARY    145   LAYER   1   ROW    10   COL    10   RATE   -100.0000    
 BOUNDARY    146   LAYER   1   ROW    10   COL    11   RATE   -100.0000    
 BOUNDARY    147   LAYER   1   ROW    10   COL    12   RATE    -47.9267    
 BOUNDARY    148   LAYER   1   ROW    10   COL    13   RATE    -6.23122    
 BOUNDARY    149   LAYER   1   ROW    10   COL    14   RATE     0.00000    
 BOUNDARY    150   LAYER   1   ROW    10   COL    15   RATE     0.00000    

 HEAD WILL BE SAVED ON UNIT 1017 AT END OF TIME STEP    1, STRESS PERIOD    6
RIV   no.    1 value from time series:   101.00     for time:  122.0     to  123.0    
RIV   no.    2 value from time series:   101.00     for time:  122.0     to  123.0    
RIV   no.    3 value from time series:   111.50     for time:  122.0     to  123.0    
RIV   no.    4 value from time series:   111.50     for time:  122.0     to  123.0    
RIV   no.    5 value from time series:   115.10     for time:  122.0     to  123.0    
RIV   no.    6 value from time series:   115.10     for time:  122.0     to  123.0    
RIV   no.    7 value from time series:   104.00     for time:  122.0     to  123.0    
RIV   no.    8 value from time series:   104.00     for time:  122.0     to  123.0    
RIV   no.    9 value from time series:   113.50     for time:  122.0     to  123.0    
RIV   no.   10 value from time series:   113.50     for time:  122.0     to  123.0    
RIV   no.    1 value from time series:   101.00     for time:  122.0     to  123.0    
RIV   no.    2 value from time series:   101.00     for time:  122.0     to  123.0    
RIV   no.    3 value from time series:   111.50     for time:  122.0     to  123.0    
RIV   no.    4 value from time series:   111.50     for time:  122.0     to  123.0    
RIV   no.    5 value from time series:   115.10     for time:  122.0     to  123.0    
RIV   no.    6 value from time series:   115.10     for time:  122.0     to  123.0    
RIV   no.    7 value from time series:   104.00     for time:  122.0     to  123.0    
RIV   no.    8 value from time series:   104.00     for time:  122.0     to  123.0    
RIV   no.    9 value from time series:   113.50     for time:  122.0     to  123.0    
RIV   no.   10 value from time series:   113.50     for time:  122.0     to  123.0    

 OUTPUT CONTROL FOR STRESS PERIOD    6   TIME STEP    2
    SAVE BUDGET
    SAVE HEAD
    SAVE HEAD FOR ALL LAYERS
 UBDSV1 SAVING          STORAGE ON UNIT   1016 AT TIME STEP      2, STRESS PERIOD      6
 UBDSV1 SAVING FLOW RIGHT FACE  ON UNIT   1016 AT TIME STEP      2, STRESS PERIOD      6
 UBDSV1 SAVING FLOW FRONT FACE  ON UNIT   1016 AT TIME STEP      2, STRESS PERIOD      6
 UBDSV1 SAVING FLOW LOWER FACE  ON UNIT   1016 AT TIME STEP      2, STRESS PERIOD      6
 UBDSV4 SAVING WELLS NEAR RIVER ON UNIT   1016 AT TIME STEP      2, STRESS PERIOD      6
 UBDSV4 SAVING RIVER            ON UNIT   1016 AT TIME STEP      2, STRESS PERIOD      6

 RIVER              PERIOD  6   STEP  2
 BOUNDARY      1   LAYER   1   ROW     1   COL    15   RATE    -4996.23    
 BOUNDARY      2   LAYER   1   ROW     2   COL    15   RATE    -6122.80      RIV2
 BOUNDARY      3   LAYER   1   ROW     3   COL    15   RATE    -2388.17      RIV3
 BOUNDARY      4   LAYER   1   ROW     4   COL    15   RATE    -3852.95    
 BOUNDARY      5   LAYER   1   ROW     5   COL    15   RATE    -2489.42    
 BOUNDARY      6   LAYER   1   ROW     6   COL    15   RATE    -1836.27    
 BOUNDARY      7   LAYER   1   ROW     7   COL    15   RATE    -6322.22      RIVX
 BOUNDARY      8   LAYER   1   ROW     8   COL    15   RATE    -6172.48      RIVX
 BOUNDARY      9   LAYER   1   ROW     9   COL    15   RATE    -2382.14      RIVX
 BOUNDARY     10   LAYER   1   ROW    10   COL    15   RATE    -3289.33    

 GHB LAKES          PERIOD  6   STEP  2
 BOUNDARY      1   LAYER   1   ROW     3   COL     1   RATE    -14935.8    
 BOUNDARY      2   LAYER   1   ROW     7   COL     1   RATE    -2210.97      GHB2_UPPER
 BOUNDARY      3   LAYER   1   ROW     7   COL     1   RATE    -13367.7      GHB2_LOWER
 UBDSV4 SAVING RECHARGE         ON UNIT   1016 AT TIME STEP      2, STRESS PERIOD      6

 RECHARGE           PERIOD  6   STEP  2
 BOUNDARY      1   LAYER   1   ROW     1   COL     1   RATE     829.167    
 BOUNDARY      2   LAYER   1   ROW     1   COL     2   RATE     829.167    
 BOUNDARY      3   LAYER   1   ROW     1   COL     3   RATE     829.167    
 BOUNDARY      4   LAYER   1   ROW     1   COL     4   RATE     829.167    
 BOUNDARY      5   LAYER   1   ROW     1   COL     5   RATE     829.167    
 BOUNDARY      6   LAYER   1   ROW     1   COL     6   RATE     829.167    
 BOUNDARY      7   LAYER   1   ROW     1   COL     7   RATE     829.167    
 BOUNDARY      8   LAYER   1   ROW     1   COL     8   RATE     829.167    
 BOUNDARY      9   LAYER   1   ROW     1   COL     9   RATE     829.167    
 BOUNDARY     10   LAYER   1   ROW     1   COL    10   RATE     829.167    
 BOUNDARY     11   LAYER   1   ROW     1   COL    11   RATE     829.167    
 BOUNDARY     12   LAYER   1   ROW     1   COL    12   RATE     829.167    
 BOUNDARY     13   LAYER   1   ROW     1   COL    13   RATE     829.167    
 BOUNDARY     14   LAYER   1   ROW     1   COL    14   RATE     829.167    
 BOUNDARY     15   LAYER   1   ROW     1   COL    15   RATE     829.167    
 BOUNDARY     16   LAYER   1   ROW     2   COL     1   RATE     829.167    
 BOUNDARY     17   LAYER   1   ROW     2   COL     2   RATE     829.167    
 BOUNDARY     18   LAYER   1   ROW     2   COL     3   RATE     829.167    
 BOUNDARY     19   LAYER   1   ROW     2   COL     4   RATE     829.167    
 BOUNDARY     20   LAYER   1   ROW     2   COL     5   RATE     829.167    
 BOUNDARY     21   LAYER   1   ROW     2   COL     6   RATE     829.167    
 BOUNDARY     22   LAYER   1   ROW     2   COL     7   RATE     829.167    
 BOUNDARY     23   LAYER   1   ROW     2   COL     8   RATE     829.167    
 BOUNDARY     24   LAYER   1   ROW     2   COL     9   RATE     829.167    
 BOUNDARY     25   LAYER   1   ROW     2   COL    10   RATE     829.167    
 BOUNDARY     26   LAYER   1   ROW     2   COL    11   RATE     829.167    
 BOUNDARY     27   LAYER   1   ROW     2   COL    12   RATE     829.167    
 BOUNDARY     28   LAYER   1   ROW     2   COL    13   RATE     829.167    
 BOUNDARY     29   LAYER   1   ROW     2   COL    14   RATE     829.167    
 BOUNDARY     30   LAYER   1   ROW     2   COL    15   RATE     829.167    
 BOUNDARY     31   LAYER   1   ROW     3   COL     1   RATE     829.167    
 BOUNDARY     32   LAYER   1   ROW     3   COL     2   RATE     829.167    
 BOUNDARY     33   LAYER   1   ROW     3   COL     3   RATE     829.167    
 BOUNDARY     34   LAYER   1   ROW     3   COL     4   RATE     829.167    
 BOUNDARY     35   LAYER   1   ROW     3   COL     5   RATE     829.167    
 BOUNDARY     36   LAYER   1   ROW     3   COL     6   RATE     829.167    
 BOUNDARY     37   LAYER   1   ROW     3   COL     7   RATE     829.167    
 BOUNDARY     38   LAYER   1   ROW     3   COL     8   RATE     829.167    
 BOUNDARY     39   LAYER   1   ROW     3   COL     9   RATE     829.167    
 BOUNDARY     40   LAYER   1   ROW     3   COL    10   RATE     829.167    
 BOUNDARY     41   LAYER   1   ROW     3   COL    11   RATE     829.167    
 BOUNDARY     42   LAYER   1   ROW     3   COL    12   RATE     829.167    
 BOUNDARY     43   LAYER   1   ROW     3   COL    13   RATE     829.167    
 BOUNDARY     44   LAYER   1   ROW     3   COL    14   RATE     829.167    
 BOUNDARY     45   LAYER   1   ROW     3   COL    15   RATE     829.167    
 BOUNDARY     46   LAYER   1   ROW     4   COL     1   RATE     829.167    
 BOUNDARY     47   LAYER   1   ROW     4   COL     2   RATE     829.167    
 BOUNDARY     48   LAYER   1   ROW     4   COL     3   RATE     829.167    
 BOUNDARY     49   LAYER   1   ROW     4   COL     4   RATE     829.167    
 BOUNDARY     50   LAYER   1   ROW     4   COL     5   RATE     829.167    
 BOUNDARY     51   LAYER   1   ROW     4   COL     6   RATE     829.167    
 BOUNDARY     52   LAYER   1   ROW     4   COL     7   RATE     829.167    
 BOUNDARY     53   LAYER   1   ROW     4   COL     8   RATE     829.167    
 BOUNDARY     54   LAYER   1   ROW     4   COL     9   RATE     829.167    
 BOUNDARY     55   LAYER   1   ROW     4   COL    10   RATE     829.167    
 BOUNDARY     56   LAYER   1   ROW     4   COL    11   RATE     829.167    
 BOUNDARY     57   LAYER   1   ROW     4   COL    12   RATE     829.167    
 BOUNDARY     58   LAYER   1   ROW     4   COL    13   RATE     829.167    
 BOUNDARY     59   LAYER   1   ROW     4   COL    14   RATE     829.167    
 BOUNDARY     60   LAYER   1   ROW     4   COL    15   RATE     829.167    
 BOUNDARY     61   LAYER   1   ROW     5   COL     1   RATE     829.167    
 BOUNDARY     62   LAYER   1   ROW     5   COL     2   RATE     829.167    
 BOUNDARY     63   LAYER   1   ROW     5   COL     3   RATE     829.167    
 BOUNDARY     64   LAYER   1   ROW     5   COL     4   RATE     829.167    
 BOUNDARY     65   LAYER   1   ROW     5   COL     5   RATE     829.167    
 BOUNDARY     66   LAYER   1   ROW     5   COL     6   RATE     829.167    
 BOUNDARY     67   LAYER   1   ROW     5   COL     7   RATE     829.167    
 BOUNDARY     68   LAYER   1   ROW     5   COL     8   RATE     829.167    
 BOUNDARY     69   LAYER   1   ROW     5   COL     9   RATE     829.167    
 BOUNDARY     70   LAYER   1   ROW     5   COL    10   RATE     829.167    
 BOUNDARY     71   LAYER   1   ROW     5   COL    11   RATE     829.167    
 BOUNDARY     72   LAYER   1   ROW     5   COL    12   RATE     829.167    
 BOUNDARY     73   LAYER   1   ROW     5   COL    13   RATE     829.167    
 BOUNDARY     74   LAYER   1   ROW     5   COL    14   RATE     829.167    
 BOUNDARY     75   LAYER   1   ROW     5   COL    15   RATE     829.167    
 BOUNDARY     76   LAYER   1   ROW     6   COL     1   RATE     829.167    
 BOUNDARY     77   LAYER   1   ROW     6   COL     2   RATE     829.167    
 BOUNDARY     78   LAYER   1   ROW     6   COL     3   RATE     829.167    
 BOUNDARY     79   LAYER   1   ROW     6   COL     4   RATE     829.167    
 BOUNDARY     80   LAYER   1   ROW     6   COL     5   RATE     829.167    
 BOUNDARY     81   LAYER   1   ROW     6   COL     6   RATE     829.167    
 BOUNDARY     82   LAYER   1   ROW     6   COL     7   RATE     829.167    
 BOUNDARY     83   LAYER   1   ROW     6   COL     8   RATE     829.167    
 BOUNDARY     84   LAYER   1   ROW     6   COL     9   RATE     829.167    
 BOUNDARY     85   LAYER   1   ROW     6   COL    10   RATE     829.167    
 BOUNDARY     86   LAYER   1   ROW     6   COL    11   RATE     829.167    
 BOUNDARY     87   LAYER   1   ROW     6   COL    12   RATE     829.167    
 BOUNDARY     88   LAYER   1   ROW     6   COL    13   RATE     829.167    
 BOUNDARY     89   LAYER   1   ROW     6   COL    14   RATE     829.167    
 BOUNDARY     90   LAYER   1   ROW     6   COL    15   RATE     829.167    
 BOUNDARY     91   LAYER   1   ROW     7   COL     1   RATE     829.167    
 BOUNDARY     92   LAYER   1   ROW     7   COL     2   RATE     829.167    
 BOUNDARY     93   LAYER   1   ROW     7   COL     3   RATE     829.167    
 BOUNDARY     94   LAYER   1   ROW     7   COL     4   RATE     829.167    
 BOUNDARY     95   LAYER   1   ROW     7   COL     5   RATE     829.167    
 BOUNDARY     96   LAYER   1   ROW     7   COL     6   RATE     829.167    
 BOUNDARY     97   LAYER   1   ROW     7   COL     7   RATE     829.167    
 BOUNDARY     98   LAYER   1   ROW     7   COL     8   RATE     829.167    
 BOUNDARY     99   LAYER   1   ROW     7   COL     9   RATE     829.167    
 BOUNDARY    100   LAYER   1   ROW     7   COL    10   RATE     829.167    
 BOUNDARY    101   LAYER   1   ROW     7   COL    11   RATE     829.167    
 BOUNDARY    102   LAYER   1   ROW     7   COL    12   RATE     829.167    
 BOUNDARY    103   LAYER   1   ROW     7   COL    13   RATE     829.167    
 BOUNDARY    104   LAYER   1   ROW     7   COL    14   RATE     829.167    
 BOUNDARY    105   LAYER   1   ROW     7   COL    15   RATE     829.167    
 BOUNDARY    106   LAYER   1   ROW     8   COL     1   RATE     829.167    
 BOUNDARY    107   LAYER   1   ROW     8   COL     2   RATE     829.167    
 BOUNDARY    108   LAYER   1   ROW     8   COL     3   RATE     829.167    
 BOUNDARY    109   LAYER   1   ROW     8   COL     4   RATE     829.167    
 BOUNDARY    110   LAYER   1   ROW     8   COL     5   RATE     829.167    
 BOUNDARY    111   LAYER   1   ROW     8   COL     6   RATE     829.167    
 BOUNDARY    112   LAYER   1   ROW     8   COL     7   RATE     829.167    
 BOUNDARY    113   LAYER   1   ROW     8   COL     8   RATE     829.167    
 BOUNDARY    114   LAYER   1   ROW     8   COL     9   RATE     829.167    
 BOUNDARY    115   LAYER   1   ROW     8   COL    10   RATE     829.167    
 BOUNDARY    116   LAYER   1   ROW     8   COL    11   RATE     829.167    
 BOUNDARY    117   LAYER   1   ROW     8   COL    12   RATE     829.167    
 BOUNDARY    118   LAYER   1   ROW     8   COL    13   RATE     829.167    
 BOUNDARY    119   LAYER   1   ROW     8   COL    14   RATE     829.167    
 BOUNDARY    120   LAYER   1   ROW     8   COL    15   RATE     829.167    
 BOUNDARY    121   LAYER   1   ROW     9   COL     1   RATE     829.167    
 BOUNDARY    122   LAYER   1   ROW     9   COL     2   RATE     829.167    
 BOUNDARY    123   LAYER   1   ROW     9   COL     3   RATE     829.167    
 BOUNDARY    124   LAYER   1   ROW     9   COL     4   RATE     829.167    
 BOUNDARY    125   LAYER   1   ROW     9   COL     5   RATE     829.167    
 BOUNDARY    126   LAYER   1   ROW     9   COL     6   RATE     829.167    
 BOUNDARY    127   LAYER   1   ROW     9   COL     7   RATE     829.167    
 BOUNDARY    128   LAYER   1   ROW     9   COL     8   RATE     829.167    
 BOUNDARY    129   LAYER   1   ROW     9   COL     9   RATE     829.167    
 BOUNDARY    130   LAYER   1   ROW     9   COL    10   RATE     829.167    
 BOUNDARY    131   LAYER   1   ROW     9   COL    11   RATE     829.167    
 BOUNDARY    132   LAYER   1   ROW     9   COL    12   RATE     829.167    
 BOUNDARY    133   LAYER   1   ROW     9   COL    13   RATE     829.167    
 BOUNDARY    134   LAYER   1   ROW     9   COL    14   RATE     829.167    
 BOUNDARY    135   LAYER   1   ROW     9   COL    15   RATE     829.167    
 BOUNDARY    136   LAYER   1   ROW    10   COL     1   RATE     829.167    
 BOUNDARY    137   LAYER   1   ROW    10   COL     2   RATE     829.167    
 BOUNDARY    138   LAYER   1   ROW    10   COL     3   RATE     829.167    
 BOUNDARY    139   LAYER   1   ROW    10   COL     4   RATE     829.167    
 BOUNDARY    140   LAYER   1   ROW    10   COL     5   RATE     829.167    
 BOUNDARY    141   LAYER   1   ROW    10   COL     6   RATE     829.167    
 BOUNDARY    142   LAYER   1   ROW    10   COL     7   RATE     829.167    
 BOUNDARY    143   LAYER   1   ROW    10   COL     8   RATE     829.167    
 BOUNDARY    144   LAYER   1   ROW    10   COL     9   RATE     829.167    
 BOUNDARY    145   LAYER   1   ROW    10   COL    10   RATE     829.167    
 BOUNDARY    146   LAYER   1   ROW    10   COL    11   RATE     829.167    
 BOUNDARY    147   LAYER   1   ROW    10   COL    12   RATE     829.167    
 BOUNDARY    148   LAYER   1   ROW    10   COL    13   RATE     829.167    
 BOUNDARY    149   LAYER   1   ROW    10   COL    14   RATE     829.167    
 BOUNDARY    150   LAYER   1   ROW    10   COL    15   RATE     829.167    
 UBDSV4 SAVING ET SEGS          ON UNIT   1016 AT TIME STEP      2, STRESS PERIOD      6

 ET SEGS            PERIOD  6   STEP  2
 BOUNDARY      1   LAYER   1   ROW     1   COL     1   RATE    -3.44292    
 BOUNDARY      2   LAYER   1   ROW     1   COL     2   RATE    -11.0229    
 BOUNDARY      3   LAYER   1   ROW     1   COL     3   RATE    -71.7005    
 BOUNDARY      4   LAYER   1   ROW     1   COL     4   RATE   -100.0000    
 BOUNDARY      5   LAYER   1   ROW     1   COL     5   RATE   -100.0000    
 BOUNDARY      6   LAYER   1   ROW     1   COL     6   RATE   -100.0000    
 BOUNDARY      7   LAYER   1   ROW     1   COL     7   RATE   -100.0000    
 BOUNDARY      8   LAYER   1   ROW     1   COL     8   RATE   -100.0000    
 BOUNDARY      9   LAYER   1   ROW     1   COL     9   RATE   -100.0000    
 BOUNDARY     10   LAYER   1   ROW     1   COL    10   RATE   -100.0000    
 BOUNDARY     11   LAYER   1   ROW     1   COL    11   RATE   -100.0000    
 BOUNDARY     12   LAYER   1   ROW     1   COL    12   RATE    -21.2736    
 BOUNDARY     13   LAYER   1   ROW     1   COL    13   RATE   -0.449306    
 BOUNDARY     14   LAYER   1   ROW     1   COL    14   RATE     0.00000    
 BOUNDARY     15   LAYER   1   ROW     1   COL    15   RATE     0.00000    
 BOUNDARY     16   LAYER   1   ROW     2   COL     1   RATE     0.00000    
 BOUNDARY     17   LAYER   1   ROW     2   COL     2   RATE    -5.76332    
 BOUNDARY     18   LAYER   1   ROW     2   COL     3   RATE    -43.5935    
 BOUNDARY     19   LAYER   1   ROW     2   COL     4   RATE   -100.0000    
 BOUNDARY     20   LAYER   1   ROW     2   COL     5   RATE   -100.0000    
 BOUNDARY     21   LAYER   1   ROW     2   COL     6   RATE   -100.0000    
 BOUNDARY     22   LAYER   1   ROW     2   COL     7   RATE   -100.0000    
 BOUNDARY     23   LAYER   1   ROW     2   COL     8   RATE   -100.0000    
 BOUNDARY     24   LAYER   1   ROW     2   COL     9   RATE   -100.0000    
 BOUNDARY     25   LAYER   1   ROW     2   COL    10   RATE   -100.0000    
 BOUNDARY     26   LAYER   1   ROW     2   COL    11   RATE   -100.0000    
 BOUNDARY     27   LAYER   1   ROW     2   COL    12   RATE    -23.0170    
 BOUNDARY     28   LAYER   1   ROW     2   COL    13   RATE    -1.43511    
 BOUNDARY     29   LAYER   1   ROW     2   COL    14   RATE     0.00000    
 BOUNDARY     30   LAYER   1   ROW     2   COL    15   RATE     0.00000    
 BOUNDARY     31   LAYER   1   ROW     3   COL     1   RATE     0.00000    
 BOUNDARY     32   LAYER   1   ROW     3   COL     2   RATE     0.00000    
 BOUNDARY     33   LAYER   1   ROW     3   COL     3   RATE    -26.6082    
 BOUNDARY     34   LAYER   1   ROW     3   COL     4   RATE   -100.0000    
 BOUNDARY     35   LAYER   1   ROW     3   COL     5   RATE   -100.0000    
 BOUNDARY     36   LAYER   1   ROW     3   COL     6   RATE   -100.0000    
 BOUNDARY     37   LAYER   1   ROW     3   COL     7   RATE   -100.0000    
 BOUNDARY     38   LAYER   1   ROW     3   COL     8   RATE   -100.0000    
 BOUNDARY     39   LAYER   1   ROW     3   COL     9   RATE   -100.0000    
 BOUNDARY     40   LAYER   1   ROW     3   COL    10   RATE   -100.0000    
 BOUNDARY     41   LAYER   1   ROW     3   COL    11   RATE   -100.0000    
 BOUNDARY     42   LAYER   1   ROW     3   COL    12   RATE    -25.9536    
 BOUNDARY     43   LAYER   1   ROW     3   COL    13   RATE    -3.22992    
 BOUNDARY     44   LAYER   1   ROW     3   COL    14   RATE     0.00000    
 BOUNDARY     45   LAYER   1   ROW     3   COL    15   RATE     0.00000    
 BOUNDARY     46   LAYER   1   ROW     4   COL     1   RATE     0.00000    
 BOUNDARY     47   LAYER   1   ROW     4   COL     2   RATE    -4.25212    
 BOUNDARY     48   LAYER   1   ROW     4   COL     3   RATE    -32.6862    
 BOUNDARY     49   LAYER   1   ROW     4   COL     4   RATE   -100.0000    
 BOUNDARY     50   LAYER   1   ROW     4   COL     5   RATE   -100.0000    
 BOUNDARY     51   LAYER   1   ROW     4   COL     6   RATE   -100.0000    
 BOUNDARY     52   LAYER   1   ROW     4   COL     7   RATE   -100.0000    
 BOUNDARY     53   LAYER   1   ROW     4   COL     8   RATE   -100.0000    
 BOUNDARY     54   LAYER   1   ROW     4   COL     9   RATE   -100.0000    
 BOUNDARY     55   LAYER   1   ROW     4   COL    10   RATE   -100.0000    
 BOUNDARY     56   LAYER   1   ROW     4   COL    11   RATE   -100.0000    
 BOUNDARY     57   LAYER   1   ROW     4   COL    12   RATE    -28.7342    
 BOUNDARY     58   LAYER   1   ROW     4   COL    13   RATE    -4.67791    
 BOUNDARY     59   LAYER   1   ROW     4   COL    14   RATE     0.00000    
 BOUNDARY     60   LAYER   1   ROW     4   COL    15   RATE     0.00000    
 BOUNDARY     61   LAYER   1   ROW     5   COL     1   RATE     0.00000    
 BOUNDARY     62   LAYER   1   ROW     5   COL     2   RATE    -7.24289    
 BOUNDARY     63   LAYER   1   ROW     5   COL     3   RATE    -53.3554    
 BOUNDARY     64   LAYER   1   ROW     5   COL     4   RATE   -100.0000    
 BOUNDARY     65   LAYER   1   ROW     5   COL     5   RATE   -100.0000    
 BOUNDARY     66   LAYER   1   ROW     5   COL     6   RATE   -100.0000    
 BOUNDARY     67   LAYER   1   ROW     5   COL     7   RATE   -100.0000    
 BOUNDARY     68   LAYER   1   ROW     5   COL     8   RATE   -100.0000    
 BOUNDARY     69   LAYER   1   ROW     5   COL     9   RATE   -100.0000    
 BOUNDARY     70   LAYER   1   ROW     5   COL    10   RATE   -100.0000    
 BOUNDARY     71   LAYER   1   ROW     5   COL    11   RATE   -100.0000    
 BOUNDARY     72   LAYER   1   ROW     5   COL    12   RATE    -33.3405    
 BOUNDARY     73   LAYER   1   ROW     5   COL    13   RATE    -5.55567    
 BOUNDARY     74   LAYER   1   ROW     5   COL    14   RATE     0.00000    
 BOUNDARY     75   LAYER   1   ROW     5   COL    15   RATE     0.00000    
 BOUNDARY     76   LAYER   1   ROW     6   COL     1   RATE     0.00000    
 BOUNDARY     77   LAYER   1   ROW     6   COL     2   RATE    -5.78201    
 BOUNDARY     78   LAYER   1   ROW     6   COL     3   RATE    -57.0287    
 BOUNDARY     79   LAYER   1   ROW     6   COL     4   RATE   -100.0000    
 BOUNDARY     80   LAYER   1   ROW     6   COL     5   RATE   -100.0000    
 BOUNDARY     81   LAYER   1   ROW     6   COL     6   RATE   -100.0000    
 BOUNDARY     82   LAYER   1   ROW     6   COL     7   RATE   -100.0000    
 BOUNDARY     83   LAYER   1   ROW     6   COL     8   RATE   -100.0000    
 BOUNDARY     84   LAYER   1   ROW     6   COL     9   RATE   -100.0000    
 BOUNDARY     85   LAYER   1   ROW     6   COL    10   RATE   -100.0000    
 BOUNDARY     86   LAYER   1   ROW     6   COL    11   RATE   -100.0000    
 BOUNDARY     87   LAYER   1   ROW     6   COL    12   RATE    -36.6656    
 BOUNDARY     88   LAYER   1   ROW     6   COL    13   RATE    -5.50469    
 BOUNDARY     89   LAYER   1   ROW     6   COL    14   RATE     0.00000    
 BOUNDARY     90   LAYER   1   ROW     6   COL    15   RATE     0.00000    
 BOUNDARY     91   LAYER   1   ROW     7   COL     1   RATE     0.00000    
 BOUNDARY     92   LAYER   1   ROW     7   COL     2   RATE    -2.20266    
 BOUNDARY     93   LAYER   1   ROW     7   COL     3   RATE    -63.7285    
 BOUNDARY     94   LAYER   1   ROW     7   COL     4   RATE   -100.0000    
 BOUNDARY     95   LAYER   1   ROW     7   COL     5   RATE   -100.0000    
 BOUNDARY     96   LAYER   1   ROW     7   COL     6   RATE   -100.0000    
 BOUNDARY     97   LAYER   1   ROW     7   COL     7   RATE   -100.0000    
 BOUNDARY     98   LAYER   1   ROW     7   COL     8   RATE   -100.0000    
 BOUNDARY     99   LAYER   1   ROW     7   COL     9   RATE   -100.0000    
 BOUNDARY    100   LAYER   1   ROW     7   COL    10   RATE   -100.0000    
 BOUNDARY    101   LAYER   1   ROW     7   COL    11   RATE   -100.0000    
 BOUNDARY    102   LAYER   1   ROW     7   COL    12   RATE    -35.9431    
 BOUNDARY    103   LAYER   1   ROW     7   COL    13   RATE    -4.79234    
 BOUNDARY    104   LAYER   1   ROW     7   COL    14   RATE     0.00000    
 BOUNDARY    105   LAYER   1   ROW     7   COL    15   RATE     0.00000    
 BOUNDARY    106   LAYER   1   ROW     8   COL     1   RATE     0.00000    
 BOUNDARY    107   LAYER   1   ROW     8   COL     2   RATE    -15.4887    
 BOUNDARY    108   LAYER   1   ROW     8   COL     3   RATE   -100.0000    
 BOUNDARY    109   LAYER   1   ROW     8   COL     4   RATE   -100.0000    
 BOUNDARY    110   LAYER   1   ROW     8   COL     5   RATE   -100.0000    
 BOUNDARY    111   LAYER   1   ROW     8   COL     6   RATE   -100.0000    
 BOUNDARY    112   LAYER   1   ROW     8   COL     7   RATE   -100.0000    
 BOUNDARY    113   LAYER   1   ROW     8   COL     8   RATE   -100.0000    
 BOUNDARY    114   LAYER   1   ROW     8   COL     9   RATE   -100.0000    
 BOUNDARY    115   LAYER   1   ROW     8   COL    10   RATE   -100.0000    
 BOUNDARY    116   LAYER   1   ROW     8   COL    11   RATE   -100.0000    
 BOUNDARY    117   LAYER   1   ROW     8   COL    12   RATE    -38.1783    
 BOUNDARY    118   LAYER   1   ROW     8   COL    13   RATE    -4.83367    
 BOUNDARY    119   LAYER   1   ROW     8   COL    14   RATE     0.00000    
 BOUNDARY    120   LAYER   1   ROW     8   COL    15   RATE     0.00000    
 BOUNDARY    121   LAYER   1   ROW     9   COL     1   RATE    -23.1118    
 BOUNDARY    122   LAYER   1   ROW     9   COL     2   RATE    -83.1121    
 BOUNDARY    123   LAYER   1   ROW     9   COL     3   RATE   -100.0000    
 BOUNDARY    124   LAYER   1   ROW     9   COL     4   RATE   -100.0000    
 BOUNDARY    125   LAYER   1   ROW     9   COL     5   RATE   -100.0000    
 BOUNDARY    126   LAYER   1   ROW     9   COL     6   RATE   -100.0000    
 BOUNDARY    127   LAYER   1   ROW     9   COL     7   RATE   -100.0000    
 BOUNDARY    128   LAYER   1   ROW     9   COL     8   RATE   -100.0000    
 BOUNDARY    129   LAYER   1   ROW     9   COL     9   RATE   -100.0000    
 BOUNDARY    130   LAYER   1   ROW     9   COL    10   RATE   -100.0000    
 BOUNDARY    131   LAYER   1   ROW     9   COL    11   RATE   -100.0000    
 BOUNDARY    132   LAYER   1   ROW     9   COL    12   RATE    -44.1188    
 BOUNDARY    133   LAYER   1   ROW     9   COL    13   RATE    -5.70269    
 BOUNDARY    134   LAYER   1   ROW     9   COL    14   RATE     0.00000    
 BOUNDARY    135   LAYER   1   ROW     9   COL    15   RATE     0.00000    
 BOUNDARY    136   LAYER   1   ROW    10   COL     1   RATE    -91.2682    
 BOUNDARY    137   LAYER   1   ROW    10   COL     2   RATE   -100.0000    
 BOUNDARY    138   LAYER   1   ROW    10   COL     3   RATE   -100.0000    
 BOUNDARY    139   LAYER   1   ROW    10   COL     4   RATE   -100.0000    
 BOUNDARY    140   LAYER   1   ROW    10   COL     5   RATE   -100.0000    
 BOUNDARY    141   LAYER   1   ROW    10   COL     6   RATE   -100.0000    
 BOUNDARY    142   LAYER   1   ROW    10   COL     7   RATE   -100.0000    
 BOUNDARY    143   LAYER   1   ROW    10   COL     8   RATE   -100.0000    
 BOUNDARY    144   LAYER   1   ROW    10   COL     9   RATE   -100.0000    
 BOUNDARY    145   LAYER   1   ROW    10   COL    10   RATE   -100.0000    
 BOUNDARY    146   LAYER   1   ROW    10   COL    11   RATE   -100.0000    
 BOUNDARY    147   LAYER   1   ROW    10   COL    12   RATE    -48.3667    
 BOUNDARY    148   LAYER   1   ROW    10   COL    13   RATE    -6.25624    
 BOUNDARY    149   LAYER   1   ROW    10   COL    14   RATE     0.00000    
 BOUNDARY    150   LAYER   1   ROW    10   COL    15   RATE     0.00000    

 HEAD WILL BE SAVED ON UNIT 1017 AT END OF TIME STEP    2, STRESS PERIOD    6
RIV   no.    1 value from time series:   101.00     for time:  123.0     to  124.0    
RIV   no.    2 value from time series:   101.00     for time:  123.0     to  124.0    
RIV   no.    3 value from time series:   111.50     for time:  123.0     to  124.0    
RIV   no.    4 value from time series:   111.50     for time:  123.0     to  124.0    
RIV   no.    5 value from time series:   115.10     for time:  123.0     to  124.0    
RIV   no.    6 value from time series:   115.10     for time:  123.0     to  124.0    
RIV   no.    7 value from time series:   104.00     for time:  123.0     to  124.0    
RIV   no.    8 value from time series:   104.00     for time:  123.0     to  124.0    
RIV   no.    9 value from time series:   113.50     for time:  123.0     to  124.0    
RIV   no.   10 value from time series:   113.50     for time:  123.0     to  124.0    
RIV   no.    1 value from time series:   101.00     for time:  123.0     to  124.0    
RIV   no.    2 value from time series:   101.00     for time:  123.0     to  124.0    
RIV   no.    3 value from time series:   111.50     for time:  123.0     to  124.0    
RIV   no.    4 value from time series:   111.50     for time:  123.0     to  124.0    
RIV   no.    5 value from time series:   115.10     for time:  123.0     to  124.0    
RIV   no.    6 value from time series:   115.10     for time:  123.0     to  124.0    
RIV   no.    7 value from time series:   104.00     for time:  123.0     to  124.0    
RIV   no.    8 value from time series:   104.00     for time:  123.0     to  124.0    
RIV   no.    9 value from time series:   113.50     for time:  123.0     to  124.0    
RIV   no.   10 value from time series:   113.50     for time:  123.0     to  124.0    

 OUTPUT CONTROL FOR STRESS PERIOD    6   TIME STEP    3
    SAVE BUDGET
    SAVE HEAD
    SAVE HEAD FOR ALL LAYERS
 UBDSV1 SAVING          STORAGE ON UNIT   1016 AT TIME STEP      3, STRESS PERIOD      6
 UBDSV1 SAVING FLOW RIGHT FACE  ON UNIT   1016 AT TIME STEP      3, STRESS PERIOD      6
 UBDSV1 SAVING FLOW FRONT FACE  ON UNIT   1016 AT TIME STEP      3, STRESS PERIOD      6
 UBDSV1 SAVING FLOW LOWER FACE  ON UNIT   1016 AT TIME STEP      3, STRESS PERIOD      6
 UBDSV4 SAVING WELLS NEAR RIVER ON UNIT   1016 AT TIME STEP      3, STRESS PERIOD      6
 UBDSV4 SAVING RIVER            ON UNIT   1016 AT TIME STEP      3, STRESS PERIOD      6

 RIVER              PERIOD  6   STEP  3
 BOUNDARY      1   LAYER   1   ROW     1   COL    15   RATE    -5000.64    
 BOUNDARY      2   LAYER   1   ROW     2   COL    15   RATE    -6127.28      RIV2
 BOUNDARY      3   LAYER   1   ROW     3   COL    15   RATE    -2392.57      RIV3
 BOUNDARY      4   LAYER   1   ROW     4   COL    15   RATE    -3857.40    
 BOUNDARY      5   LAYER   1   ROW     5   COL    15   RATE    -2493.81    
 BOUNDARY      6   LAYER   1   ROW     6   COL    15   RATE    -1840.64    
 BOUNDARY      7   LAYER   1   ROW     7   COL    15   RATE    -6326.76      RIVX
 BOUNDARY      8   LAYER   1   ROW     8   COL    15   RATE    -6177.08      RIVX
 BOUNDARY      9   LAYER   1   ROW     9   COL    15   RATE    -2386.70      RIVX
 BOUNDARY     10   LAYER   1   ROW    10   COL    15   RATE    -3293.96    

 GHB LAKES          PERIOD  6   STEP  3
 BOUNDARY      1   LAYER   1   ROW     3   COL     1   RATE    -14944.1    
 BOUNDARY      2   LAYER   1   ROW     7   COL     1   RATE    -2217.42      GHB2_UPPER
 BOUNDARY      3   LAYER   1   ROW     7   COL     1   RATE    -13370.0      GHB2_LOWER
 UBDSV4 SAVING RECHARGE         ON UNIT   1016 AT TIME STEP      3, STRESS PERIOD      6

 RECHARGE           PERIOD  6   STEP  3
 BOUNDARY      1   LAYER   1   ROW     1   COL     1   RATE     830.833    
 BOUNDARY      2   LAYER   1   ROW     1   COL     2   RATE     830.833    
 BOUNDARY      3   LAYER   1   ROW     1   COL     3   RATE     830.833    
 BOUNDARY      4   LAYER   1   ROW     1   COL     4   RATE     830.833    
 BOUNDARY      5   LAYER   1   ROW     1   COL     5   RATE     830.833    
 BOUNDARY      6   LAYER   1   ROW     1   COL     6   RATE     830.833    
 BOUNDARY      7   LAYER   1   ROW     1   COL     7   RATE     830.833    
 BOUNDARY      8   LAYER   1   ROW     1   COL     8   RATE     830.833    
 BOUNDARY      9   LAYER   1   ROW     1   COL     9   RATE     830.833    
 BOUNDARY     10   LAYER   1   ROW     1   COL    10   RATE     830.833    
 BOUNDARY     11   LAYER   1   ROW     1   COL    11   RATE     830.833    
 BOUNDARY     12   LAYER   1   ROW     1   COL    12   RATE     830.833    
 BOUNDARY     13   LAYER   1   ROW     1   COL    13   RATE     830.833    
 BOUNDARY     14   LAYER   1   ROW     1   COL    14   RATE     830.833    
 BOUNDARY     15   LAYER   1   ROW     1   COL    15   RATE     830.833    
 BOUNDARY     16   LAYER   1   ROW     2   COL     1   RATE     830.833    
 BOUNDARY     17   LAYER   1   ROW     2   COL     2   RATE     830.833    
 BOUNDARY     18   LAYER   1   ROW     2   COL     3   RATE     830.833    
 BOUNDARY     19   LAYER   1   ROW     2   COL     4   RATE     830.833    
 BOUNDARY     20   LAYER   1   ROW     2   COL     5   RATE     830.833    
 BOUNDARY     21   LAYER   1   ROW     2   COL     6   RATE     830.833    
 BOUNDARY     22   LAYER   1   ROW     2   COL     7   RATE     830.833    
 BOUNDARY     23   LAYER   1   ROW     2   COL     8   RATE     830.833    
 BOUNDARY     24   LAYER   1   ROW     2   COL     9   RATE     830.833    
 BOUNDARY     25   LAYER   1   ROW     2   COL    10   RATE     830.833    
 BOUNDARY     26   LAYER   1   ROW     2   COL    11   RATE     830.833    
 BOUNDARY     27   LAYER   1   ROW     2   COL    12   RATE     830.833    
 BOUNDARY     28   LAYER   1   ROW     2   COL    13   RATE     830.833    
 BOUNDARY     29   LAYER   1   ROW     2   COL    14   RATE     830.833    
 BOUNDARY     30   LAYER   1   ROW     2   COL    15   RATE     830.833    
 BOUNDARY     31   LAYER   1   ROW     3   COL     1   RATE     830.833    
 BOUNDARY     32   LAYER   1   ROW     3   COL     2   RATE     830.833    
 BOUNDARY     33   LAYER   1   ROW     3   COL     3   RATE     830.833    
 BOUNDARY     34   LAYER   1   ROW     3   COL     4   RATE     830.833    
 BOUNDARY     35   LAYER   1   ROW     3   COL     5   RATE     830.833    
 BOUNDARY     36   LAYER   1   ROW     3   COL     6   RATE     830.833    
 BOUNDARY     37   LAYER   1   ROW     3   COL     7   RATE     830.833    
 BOUNDARY     38   LAYER   1   ROW     3   COL     8   RATE     830.833    
 BOUNDARY     39   LAYER   1   ROW     3   COL     9   RATE     830.833    
 BOUNDARY     40   LAYER   1   ROW     3   COL    10   RATE     830.833    
 BOUNDARY     41   LAYER   1   ROW     3   COL    11   RATE     830.833    
 BOUNDARY     42   LAYER   1   ROW     3   COL    12   RATE     830.833    
 BOUNDARY     43   LAYER   1   ROW     3   COL    13   RATE     830.833    
 BOUNDARY     44   LAYER   1   ROW     3   COL    14   RATE     830.833    
 BOUNDARY     45   LAYER   1   ROW     3   COL    15   RATE     830.833    
 BOUNDARY     46   LAYER   1   ROW     4   COL     1   RATE     830.833    
 BOUNDARY     47   LAYER   1   ROW     4   COL     2   RATE     830.833    
 BOUNDARY     48   LAYER   1   ROW     4   COL     3   RATE     830.833    
 BOUNDARY     49   LAYER   1   ROW     4   COL     4   RATE     830.833    
 BOUNDARY     50   LAYER   1   ROW     4   COL     5   RATE     830.833    
 BOUNDARY     51   LAYER   1   ROW     4   COL     6   RATE     830.833    
 BOUNDARY     52   LAYER   1   ROW     4   COL     7   RATE     830.833    
 BOUNDARY     53   LAYER   1   ROW     4   COL     8   RATE     830.833    
 BOUNDARY     54   LAYER   1   ROW     4   COL     9   RATE     830.833    
 BOUNDARY     55   LAYER   1   ROW     4   COL    10   RATE     830.833    
 BOUNDARY     56   LAYER   1   ROW     4   COL    11   RATE     830.833    
 BOUNDARY     57   LAYER   1   ROW     4   COL    12   RATE     830.833    
 BOUNDARY     58   LAYER   1   ROW     4   COL    13   RATE     830.833    
 BOUNDARY     59   LAYER   1   ROW     4   COL    14   RATE     830.833    
 BOUNDARY     60   LAYER   1   ROW     4   COL    15   RATE     830.833    
 BOUNDARY     61   LAYER   1   ROW     5   COL     1   RATE     830.833    
 BOUNDARY     62   LAYER   1   ROW     5   COL     2   RATE     830.833    
 BOUNDARY     63   LAYER   1   ROW     5   COL     3   RATE     830.833    
 BOUNDARY     64   LAYER   1   ROW     5   COL     4   RATE     830.833    
 BOUNDARY     65   LAYER   1   ROW     5   COL     5   RATE     830.833    
 BOUNDARY     66   LAYER   1   ROW     5   COL     6   RATE     830.833    
 BOUNDARY     67   LAYER   1   ROW     5   COL     7   RATE     830.833    
 BOUNDARY     68   LAYER   1   ROW     5   COL     8   RATE     830.833    
 BOUNDARY     69   LAYER   1   ROW     5   COL     9   RATE     830.833    
 BOUNDARY     70   LAYER   1   ROW     5   COL    10   RATE     830.833    
 BOUNDARY     71   LAYER   1   ROW     5   COL    11   RATE     830.833    
 BOUNDARY     72   LAYER   1   ROW     5   COL    12   RATE     830.833    
 BOUNDARY     73   LAYER   1   ROW     5   COL    13   RATE     830.833    
 BOUNDARY     74   LAYER   1   ROW     5   COL    14   RATE     830.833    
 BOUNDARY     75   LAYER   1   ROW     5   COL    15   RATE     830.833    
 BOUNDARY     76   LAYER   1   ROW     6   COL     1   RATE     830.833    
 BOUNDARY     77   LAYER   1   ROW     6   COL     2   RATE     830.833    
 BOUNDARY     78   LAYER   1   ROW     6   COL     3   RATE     830.833    
 BOUNDARY     79   LAYER   1   ROW     6   COL     4   RATE     830.833    
 BOUNDARY     80   LAYER   1   ROW     6   COL     5   RATE     830.833    
 BOUNDARY     81   LAYER   1   ROW     6   COL     6   RATE     830.833    
 BOUNDARY     82   LAYER   1   ROW     6   COL     7   RATE     830.833    
 BOUNDARY     83   LAYER   1   ROW     6   COL     8   RATE     830.833    
 BOUNDARY     84   LAYER   1   ROW     6   COL     9   RATE     830.833    
 BOUNDARY     85   LAYER   1   ROW     6   COL    10   RATE     830.833    
 BOUNDARY     86   LAYER   1   ROW     6   COL    11   RATE     830.833    
 BOUNDARY     87   LAYER   1   ROW     6   COL    12   RATE     830.833    
 BOUNDARY     88   LAYER   1   ROW     6   COL    13   RATE     830.833    
 BOUNDARY     89   LAYER   1   ROW     6   COL    14   RATE     830.833    
 BOUNDARY     90   LAYER   1   ROW     6   COL    15   RATE     830.833    
 BOUNDARY     91   LAYER   1   ROW     7   COL     1   RATE     830.833    
 BOUNDARY     92   LAYER   1   ROW     7   COL     2   RATE     830.833    
 BOUNDARY     93   LAYER   1   ROW     7   COL     3   RATE     830.833    
 BOUNDARY     94   LAYER   1   ROW     7   COL     4   RATE     830.833    
 BOUNDARY     95   LAYER   1   ROW     7   COL     5   RATE     830.833    
 BOUNDARY     96   LAYER   1   ROW     7   COL     6   RATE     830.833    
 BOUNDARY     97   LAYER   1   ROW     7   COL     7   RATE     830.833    
 BOUNDARY     98   LAYER   1   ROW     7   COL     8   RATE     830.833    
 BOUNDARY     99   LAYER   1   ROW     7   COL     9   RATE     830.833    
 BOUNDARY    100   LAYER   1   ROW     7   COL    10   RATE     830.833    
 BOUNDARY    101   LAYER   1   ROW     7   COL    11   RATE     830.833    
 BOUNDARY    102   LAYER   1   ROW     7   COL    12   RATE     830.833    
 BOUNDARY    103   LAYER   1   ROW     7   COL    13   RATE     830.833    
 BOUNDARY    104   LAYER   1   ROW     7   COL    14   RATE     830.833    
 BOUNDARY    105   LAYER   1   ROW     7   COL    15   RATE     830.833    
 BOUNDARY    106   LAYER   1   ROW     8   COL     1   RATE     830.833    
 BOUNDARY    107   LAYER   1   ROW     8   COL     2   RATE     830.833    
 BOUNDARY    108   LAYER   1   ROW     8   COL     3   RATE     830.833    
 BOUNDARY    109   LAYER   1   ROW     8   COL     4   RATE     830.833    
 BOUNDARY    110   LAYER   1   ROW     8   COL     5   RATE     830.833    
 BOUNDARY    111   LAYER   1   ROW     8   COL     6   RATE     830.833    
 BOUNDARY    112   LAYER   1   ROW     8   COL     7   RATE     830.833    
 BOUNDARY    113   LAYER   1   ROW     8   COL     8   RATE     830.833    
 BOUNDARY    114   LAYER   1   ROW     8   COL     9   RATE     830.833    
 BOUNDARY    115   LAYER   1   ROW     8   COL    10   RATE     830.833    
 BOUNDARY    116   LAYER   1   ROW     8   COL    11   RATE     830.833    
 BOUNDARY    117   LAYER   1   ROW     8   COL    12   RATE     830.833    
 BOUNDARY    118   LAYER   1   ROW     8   COL    13   RATE     830.833    
 BOUNDARY    119   LAYER   1   ROW     8   COL    14   RATE     830.833    
 BOUNDARY    120   LAYER   1   ROW     8   COL    15   RATE     830.833    
 BOUNDARY    121   LAYER   1   ROW     9   COL     1   RATE     830.833    
 BOUNDARY    122   LAYER   1   ROW     9   COL     2   RATE     830.833    
 BOUNDARY    123   LAYER   1   ROW     9   COL     3   RATE     830.833    
 BOUNDARY    124   LAYER   1   ROW     9   COL     4   RATE     830.833    
 BOUNDARY    125   LAYER   1   ROW     9   COL     5   RATE     830.833    
 BOUNDARY    126   LAYER   1   ROW     9   COL     6   RATE     830.833    
 BOUNDARY    127   LAYER   1   ROW     9   COL     7   RATE     830.833    
 BOUNDARY    128   LAYER   1   ROW     9   COL     8   RATE     830.833    
 BOUNDARY    129   LAYER   1   ROW     9   COL     9   RATE     830.833    
 BOUNDARY    130   LAYER   1   ROW     9   COL    10   RATE     830.833    
 BOUNDARY    131   LAYER   1   ROW     9   COL    11   RATE     830.833    
 BOUNDARY    132   LAYER   1   ROW     9   COL    12   RATE     830.833    
 BOUNDARY    133   LAYER   1   ROW     9   COL    13   RATE     830.833    
 BOUNDARY    134   LAYER   1   ROW     9   COL    14   RATE     830.833    
 BOUNDARY    135   LAYER   1   ROW     9   COL    15   RATE     830.833    
 BOUNDARY    136   LAYER   1   ROW    10   COL     1   RATE     830.833    
 BOUNDARY    137   LAYER   1   ROW    10   COL     2   RATE     830.833    
 BOUNDARY    138   LAYER   1   ROW    10   COL     3   RATE     830.833    
 BOUNDARY    139   LAYER   1   ROW    10   COL     4   RATE     830.833    
 BOUNDARY    140   LAYER   1   ROW    10   COL     5   RATE     830.833    
 BOUNDARY    141   LAYER   1   ROW    10   COL     6   RATE     830.833    
 BOUNDARY    142   LAYER   1   ROW    10   COL     7   RATE     830.833    
 BOUNDARY    143   LAYER   1   ROW    10   COL     8   RATE     830.833    
 BOUNDARY    144   LAYER   1   ROW    10   COL     9   RATE     830.833    
 BOUNDARY    145   LAYER   1   ROW    10   COL    10   RATE     830.833    
 BOUNDARY    146   LAYER   1   ROW    10   COL    11   RATE     830.833    
 BOUNDARY    147   LAYER   1   ROW    10   COL    12   RATE     830.833    
 BOUNDARY    148   LAYER   1   ROW    10   COL    13   RATE     830.833    
 BOUNDARY    149   LAYER   1   ROW    10   COL    14   RATE     830.833    
 BOUNDARY    150   LAYER   1   ROW    10   COL    15   RATE     830.833    
 UBDSV4 SAVING ET SEGS          ON UNIT   1016 AT TIME STEP      3, STRESS PERIOD      6

 ET SEGS            PERIOD  6   STEP  3
 BOUNDARY      1   LAYER   1   ROW     1   COL     1   RATE    -3.46747    
 BOUNDARY      2   LAYER   1   ROW     1   COL     2   RATE    -11.1061    
 BOUNDARY      3   LAYER   1   ROW     1   COL     3   RATE    -72.1353    
 BOUNDARY      4   LAYER   1   ROW     1   COL     4   RATE   -100.0000    
 BOUNDARY      5   LAYER   1   ROW     1   COL     5   RATE   -100.0000    
 BOUNDARY      6   LAYER   1   ROW     1   COL     6   RATE   -100.0000    
 BOUNDARY      7   LAYER   1   ROW     1   COL     7   RATE   -100.0000    
 BOUNDARY      8   LAYER   1   ROW     1   COL     8   RATE   -100.0000    
 BOUNDARY      9   LAYER   1   ROW     1   COL     9   RATE   -100.0000    
 BOUNDARY     10   LAYER   1   ROW     1   COL    10   RATE   -100.0000    
 BOUNDARY     11   LAYER   1   ROW     1   COL    11   RATE   -100.0000    
 BOUNDARY     12   LAYER   1   ROW     1   COL    12   RATE    -21.3585    
 BOUNDARY     13   LAYER   1   ROW     1   COL    13   RATE   -0.473789    
 BOUNDARY     14   LAYER   1   ROW     1   COL    14   RATE     0.00000    
 BOUNDARY     15   LAYER   1   ROW     1   COL    15   RATE     0.00000    
 BOUNDARY     16   LAYER   1   ROW     2   COL     1   RATE     0.00000    
 BOUNDARY     17   LAYER   1   ROW     2   COL     2   RATE    -5.78764    
 BOUNDARY     18   LAYER   1   ROW     2   COL     3   RATE    -44.0279    
 BOUNDARY     19   LAYER   1   ROW     2   COL     4   RATE   -100.0000    
 BOUNDARY     20   LAYER   1   ROW     2   COL     5   RATE   -100.0000    
 BOUNDARY     21   LAYER   1   ROW     2   COL     6   RATE   -100.0000    
 BOUNDARY     22   LAYER   1   ROW     2   COL     7   RATE   -100.0000    
 BOUNDARY     23   LAYER   1   ROW     2   COL     8   RATE   -100.0000    
 BOUNDARY     24   LAYER   1   ROW     2   COL     9   RATE   -100.0000    
 BOUNDARY     25   LAYER   1   ROW     2   COL    10   RATE   -100.0000    
 BOUNDARY     26   LAYER   1   ROW     2   COL    11   RATE   -100.0000    
 BOUNDARY     27   LAYER   1   ROW     2   COL    12   RATE    -23.1020    
 BOUNDARY     28   LAYER   1   ROW     2   COL    13   RATE    -1.45962    
 BOUNDARY     29   LAYER   1   ROW     2   COL    14   RATE     0.00000    
 BOUNDARY     30   LAYER   1   ROW     2   COL    15   RATE     0.00000    
 BOUNDARY     31   LAYER   1   ROW     3   COL     1   RATE     0.00000    
 BOUNDARY     32   LAYER   1   ROW     3   COL     2   RATE     0.00000    
 BOUNDARY     33   LAYER   1   ROW     3   COL     3   RATE    -26.6911    
 BOUNDARY     34   LAYER   1   ROW     3   COL     4   RATE   -100.0000    
 BOUNDARY     35   LAYER   1   ROW     3   COL     5   RATE   -100.0000    
 BOUNDARY     36   LAYER   1   ROW     3   COL     6   RATE   -100.0000    
 BOUNDARY     37   LAYER   1   ROW     3   COL     7   RATE   -100.0000    
 BOUNDARY     38   LAYER   1   ROW     3   COL     8   RATE   -100.0000    
 BOUNDARY     39   LAYER   1   ROW     3   COL     9   RATE   -100.0000    
 BOUNDARY     40   LAYER   1   ROW     3   COL    10   RATE   -100.0000    
 BOUNDARY     41   LAYER   1   ROW     3   COL    11   RATE   -100.0000    
 BOUNDARY     42   LAYER   1   ROW     3   COL    12   RATE    -26.0385    
 BOUNDARY     43   LAYER   1   ROW     3   COL    13   RATE    -3.25442    
 BOUNDARY     44   LAYER   1   ROW     3   COL    14   RATE     0.00000    
 BOUNDARY     45   LAYER   1   ROW     3   COL    15   RATE     0.00000    
 BOUNDARY     46   LAYER   1   ROW     4   COL     1   RATE     0.00000    
 BOUNDARY     47   LAYER   1   ROW     4   COL     2   RATE    -4.27630    
 BOUNDARY     48   LAYER   1   ROW     4   COL     3   RATE    -33.1210    
 BOUNDARY     49   LAYER   1   ROW     4   COL     4   RATE   -100.0000    
 BOUNDARY     50   LAYER   1   ROW     4   COL     5   RATE   -100.0000    
 BOUNDARY     51   LAYER   1   ROW     4   COL     6   RATE   -100.0000    
 BOUNDARY     52   LAYER   1   ROW     4   COL     7   RATE   -100.0000    
 BOUNDARY     53   LAYER   1   ROW     4   COL     8   RATE   -100.0000    
 BOUNDARY     54   LAYER   1   ROW     4   COL     9   RATE   -100.0000    
 BOUNDARY     55   LAYER   1   ROW     4   COL    10   RATE   -100.0000    
 BOUNDARY     56   LAYER   1   ROW     4   COL    11   RATE   -100.0000    
 BOUNDARY     57   LAYER   1   ROW     4   COL    12   RATE    -28.8190    
 BOUNDARY     58   LAYER   1   ROW     4   COL    13   RATE    -4.70231    
 BOUNDARY     59   LAYER   1   ROW     4   COL    14   RATE     0.00000    
 BOUNDARY     60   LAYER   1   ROW     4   COL    15   RATE     0.00000    
 BOUNDARY     61   LAYER   1   ROW     5   COL     1   RATE     0.00000    
 BOUNDARY     62   LAYER   1   ROW     5   COL     2   RATE    -7.26740    
 BOUNDARY     63   LAYER   1   ROW     5   COL     3   RATE    -53.7848    
 BOUNDARY     64   LAYER   1   ROW     5   COL     4   RATE   -100.0000    
 BOUNDARY     65   LAYER   1   ROW     5   COL     5   RATE   -100.0000    
 BOUNDARY     66   LAYER   1   ROW     5   COL     6   RATE   -100.0000    
 BOUNDARY     67   LAYER   1   ROW     5   COL     7   RATE   -100.0000    
 BOUNDARY     68   LAYER   1   ROW     5   COL     8   RATE   -100.0000    
 BOUNDARY     69   LAYER   1   ROW     5   COL     9   RATE   -100.0000    
 BOUNDARY     70   LAYER   1   ROW     5   COL    10   RATE   -100.0000    
 BOUNDARY     71   LAYER   1   ROW     5   COL    11   RATE   -100.0000    
 BOUNDARY     72   LAYER   1   ROW     5   COL    12   RATE    -33.7802    
 BOUNDARY     73   LAYER   1   ROW     5   COL    13   RATE    -5.57990    
 BOUNDARY     74   LAYER   1   ROW     5   COL    14   RATE     0.00000    
 BOUNDARY     75   LAYER   1   ROW     5   COL    15   RATE     0.00000    
 BOUNDARY     76   LAYER   1   ROW     6   COL     1   RATE     0.00000    
 BOUNDARY     77   LAYER   1   ROW     6   COL     2   RATE    -5.80570    
 BOUNDARY     78   LAYER   1   ROW     6   COL     3   RATE    -57.4503    
 BOUNDARY     79   LAYER   1   ROW     6   COL     4   RATE   -100.0000    
 BOUNDARY     80   LAYER   1   ROW     6   COL     5   RATE   -100.0000    
 BOUNDARY     81   LAYER   1   ROW     6   COL     6   RATE   -100.0000    
 BOUNDARY     82   LAYER   1   ROW     6   COL     7   RATE   -100.0000    
 BOUNDARY     83   LAYER   1   ROW     6   COL     8   RATE   -100.0000    
 BOUNDARY     84   LAYER   1   ROW     6   COL     9   RATE   -100.0000    
 BOUNDARY     85   LAYER   1   ROW     6   COL    10   RATE   -100.0000    
 BOUNDARY     86   LAYER   1   ROW     6   COL    11   RATE   -100.0000    
 BOUNDARY     87   LAYER   1   ROW     6   COL    12   RATE    -37.1029    
 BOUNDARY     88   LAYER   1   ROW     6   COL    13   RATE    -5.52886    
 BOUNDARY     89   LAYER   1   ROW     6   COL    14   RATE     0.00000    
 BOUNDARY     90   LAYER   1   ROW     6   COL    15   RATE     0.00000    
 BOUNDARY     91   LAYER   1   ROW     7   COL     1   RATE     0.00000    
 BOUNDARY     92   LAYER   1   ROW     7   COL     2   RATE    -2.22450    
 BOUNDARY     93   LAYER   1   ROW     7   COL     3   RATE    -64.1407    
 BOUNDARY     94   LAYER   1   ROW     7   COL     4   RATE   -100.0000    
 BOUNDARY     95   LAYER   1   ROW     7   COL     5   RATE   -100.0000    
 BOUNDARY     96   LAYER   1   ROW     7   COL     6   RATE   -100.0000    
 BOUNDARY     97   LAYER   1   ROW     7   COL     7   RATE   -100.0000    
 BOUNDARY     98   LAYER   1   ROW     7   COL     8   RATE   -100.0000    
 BOUNDARY     99   LAYER   1   ROW     7   COL     9   RATE   -100.0000    
 BOUNDARY    100   LAYER   1   ROW     7   COL    10   RATE   -100.0000    
 BOUNDARY    101   LAYER   1   ROW     7   COL    11   RATE   -100.0000    
 BOUNDARY    102   LAYER   1   ROW     7   COL    12   RATE    -36.3815    
 BOUNDARY    103   LAYER   1   ROW     7   COL    13   RATE    -4.81669    
 BOUNDARY    104   LAYER   1   ROW     7   COL    14   RATE     0.00000    
 BOUNDARY    105   LAYER   1   ROW     7   COL    15   RATE     0.00000    
 BOUNDARY    106   LAYER   1   ROW     8   COL     1   RATE     0.00000    
 BOUNDARY    107   LAYER   1   ROW     8   COL     2   RATE    -15.5670    
 BOUNDARY    108   LAYER   1   ROW     8   COL     3   RATE   -100.0000    
 BOUNDARY    109   LAYER   1   ROW     8   COL     4   RATE   -100.0000    
 BOUNDARY    110   LAYER   1   ROW     8   COL     5   RATE   -100.0000    
 BOUNDARY    111   LAYER   1   ROW     8   COL     6   RATE   -100.0000    
 BOUNDARY    112   LAYER   1   ROW     8   COL     7   RATE   -100.0000    
 BOUNDARY    113   LAYER   1   ROW     8   COL     8   RATE   -100.0000    
 BOUNDARY    114   LAYER   1   ROW     8   COL     9   RATE   -100.0000    
 BOUNDARY    115   LAYER   1   ROW     8   COL    10   RATE   -100.0000    
 BOUNDARY    116   LAYER   1   ROW     8   COL    11   RATE   -100.0000    
 BOUNDARY    117   LAYER   1   ROW     8   COL    12   RATE    -38.6180    
 BOUNDARY    118   LAYER   1   ROW     8   COL    13   RATE    -4.85831    
 BOUNDARY    119   LAYER   1   ROW     8   COL    14   RATE     0.00000    
 BOUNDARY    120   LAYER   1   ROW     8   COL    15   RATE     0.00000    
 BOUNDARY    121   LAYER   1   ROW     9   COL     1   RATE    -23.1919    
 BOUNDARY    122   LAYER   1   ROW     9   COL     2   RATE    -83.5356    
 BOUNDARY    123   LAYER   1   ROW     9   COL     3   RATE   -100.0000    
 BOUNDARY    124   LAYER   1   ROW     9   COL     4   RATE   -100.0000    
 BOUNDARY    125   LAYER   1   ROW     9   COL     5   RATE   -100.0000    
 BOUNDARY    126   LAYER   1   ROW     9   COL     6   RATE   -100.0000    
 BOUNDARY    127   LAYER   1   ROW     9   COL     7   RATE   -100.0000    
 BOUNDARY    128   LAYER   1   ROW     9   COL     8   RATE   -100.0000    
 BOUNDARY    129   LAYER   1   ROW     9   COL     9   RATE   -100.0000    
 BOUNDARY    130   LAYER   1   ROW     9   COL    10   RATE   -100.0000    
 BOUNDARY    131   LAYER   1   ROW     9   COL    11   RATE   -100.0000    
 BOUNDARY    132   LAYER   1   ROW     9   COL    12   RATE    -44.5596    
 BOUNDARY    133   LAYER   1   ROW     9   COL    13   RATE    -5.72760    
 BOUNDARY    134   LAYER   1   ROW     9   COL    14   RATE     0.00000    
 BOUNDARY    135   LAYER   1   ROW     9   COL    15   RATE     0.00000    
 BOUNDARY    136   LAYER   1   ROW    10   COL     1   RATE    -91.6938    
 BOUNDARY    137   LAYER   1   ROW    10   COL     2   RATE   -100.0000    
 BOUNDARY    138   LAYER   1   ROW    10   COL     3   RATE   -100.0000    
 BOUNDARY    139   LAYER   1   ROW    10   COL     4   RATE   -100.0000    
 BOUNDARY    140   LAYER   1   ROW    10   COL     5   RATE   -100.0000    
 BOUNDARY    141   LAYER   1   ROW    10   COL     6   RATE   -100.0000    
 BOUNDARY    142   LAYER   1   ROW    10   COL     7   RATE   -100.0000    
 BOUNDARY    143   LAYER   1   ROW    10   COL     8   RATE   -100.0000    
 BOUNDARY    144   LAYER   1   ROW    10   COL     9   RATE   -100.0000    
 BOUNDARY    145   LAYER   1   ROW    10   COL    10   RATE   -100.0000    
 BOUNDARY    146   LAYER   1   ROW    10   COL    11   RATE   -100.0000    
 BOUNDARY    147   LAYER   1   ROW    10   COL    12   RATE    -48.8084    
 BOUNDARY    148   LAYER   1   ROW    10   COL    13   RATE    -6.28135    
 BOUNDARY    149   LAYER   1   ROW    10   COL    14   RATE     0.00000    
 BOUNDARY    150   LAYER   1   ROW    10   COL    15   RATE     0.00000    

 HEAD WILL BE SAVED ON UNIT 1017 AT END OF TIME STEP    3, STRESS PERIOD    6
RIV   no.    1 value from time series:   101.00     for time:  124.0     to  125.0    
RIV   no.    2 value from time series:   101.00     for time:  124.0     to  125.0    
RIV   no.    3 value from time series:   111.50     for time:  124.0     to  125.0    
RIV   no.    4 value from time series:   111.50     for time:  124.0     to  125.0    
RIV   no.    5 value from time series:   115.10     for time:  124.0     to  125.0    
RIV   no.    6 value from time series:   115.10     for time:  124.0     to  125.0    
RIV   no.    7 value from time series:   104.00     for time:  124.0     to  125.0    
RIV   no.    8 value from time series:   104.00     for time:  124.0     to  125.0    
RIV   no.    9 value from time series:   113.50     for time:  124.0     to  125.0    
RIV   no.   10 value from time series:   113.50     for time:  124.0     to  125.0    
RIV   no.    1 value from time series:   101.00     for time:  124.0     to  125.0    
RIV   no.    2 value from time series:   101.00     for time:  124.0     to  125.0    
RIV   no.    3 value from time series:   111.50     for time:  124.0     to  125.0    
RIV   no.    4 value from time series:   111.50     for time:  124.0     to  125.0    
RIV   no.    5 value from time series:   115.10     for time:  124.0     to  125.0    
RIV   no.    6 value from time series:   115.10     for time:  124.0     to  125.0    
RIV   no.    7 value from time series:   104.00     for time:  124.0     to  125.0    
RIV   no.    8 value from time series:   104.00     for time:  124.0     to  125.0    
RIV   no.    9 value from time series:   113.50     for time:  124.0     to  125.0    
RIV   no.   10 value from time series:   113.50     for time:  124.0     to  125.0    

 OUTPUT CONTROL FOR STRESS PERIOD    6   TIME STEP    4
    SAVE BUDGET
    SAVE HEAD
    SAVE HEAD FOR ALL LAYERS
 UBDSV1 SAVING          STORAGE ON UNIT   1016 AT TIME STEP      4, STRESS PERIOD      6
 UBDSV1 SAVING FLOW RIGHT FACE  ON UNIT   1016 AT TIME STEP      4, STRESS PERIOD      6
 UBDSV1 SAVING FLOW FRONT FACE  ON UNIT   1016 AT TIME STEP      4, STRESS PERIOD      6
 UBDSV1 SAVING FLOW LOWER FACE  ON UNIT   1016 AT TIME STEP      4, STRESS PERIOD      6
 UBDSV4 SAVING WELLS NEAR RIVER ON UNIT   1016 AT TIME STEP      4, STRESS PERIOD      6
 UBDSV4 SAVING RIVER            ON UNIT   1016 AT TIME STEP      4, STRESS PERIOD      6

 RIVER              PERIOD  6   STEP  4
 BOUNDARY      1   LAYER   1   ROW     1   COL    15   RATE    -5005.02    
 BOUNDARY      2   LAYER   1   ROW     2   COL    15   RATE    -6131.73      RIV2
 BOUNDARY      3   LAYER   1   ROW     3   COL    15   RATE    -2396.94      RIV3
 BOUNDARY      4   LAYER   1   ROW     4   COL    15   RATE    -3861.83    
 BOUNDARY      5   LAYER   1   ROW     5   COL    15   RATE    -2498.18    
 BOUNDARY      6   LAYER   1   ROW     6   COL    15   RATE    -1844.98    
 BOUNDARY      7   LAYER   1   ROW     7   COL    15   RATE    -6331.27      RIVX
 BOUNDARY      8   LAYER   1   ROW     8   COL    15   RATE    -6181.65      RIVX
 BOUNDARY      9   LAYER   1   ROW     9   COL    15   RATE    -2391.22      RIVX
 BOUNDARY     10   LAYER   1   ROW    10   COL    15   RATE    -3298.56    

 GHB LAKES          PERIOD  6   STEP  4
 BOUNDARY      1   LAYER   1   ROW     3   COL     1   RATE    -14952.3    
 BOUNDARY      2   LAYER   1   ROW     7   COL     1   RATE    -2223.86      GHB2_UPPER
 BOUNDARY      3   LAYER   1   ROW     7   COL     1   RATE    -13372.3      GHB2_LOWER
 UBDSV4 SAVING RECHARGE         ON UNIT   1016 AT TIME STEP      4, STRESS PERIOD      6

 RECHARGE           PERIOD  6   STEP  4
 BOUNDARY      1   LAYER   1   ROW     1   COL     1   RATE     832.500    
 BOUNDARY      2   LAYER   1   ROW     1   COL     2   RATE     832.500    
 BOUNDARY      3   LAYER   1   ROW     1   COL     3   RATE     832.500    
 BOUNDARY      4   LAYER   1   ROW     1   COL     4   RATE     832.500    
 BOUNDARY      5   LAYER   1   ROW     1   COL     5   RATE     832.500    
 BOUNDARY      6   LAYER   1   ROW     1   COL     6   RATE     832.500    
 BOUNDARY      7   LAYER   1   ROW     1   COL     7   RATE     832.500    
 BOUNDARY      8   LAYER   1   ROW     1   COL     8   RATE     832.500    
 BOUNDARY      9   LAYER   1   ROW     1   COL     9   RATE     832.500    
 BOUNDARY     10   LAYER   1   ROW     1   COL    10   RATE     832.500    
 BOUNDARY     11   LAYER   1   ROW     1   COL    11   RATE     832.500    
 BOUNDARY     12   LAYER   1   ROW     1   COL    12   RATE     832.500    
 BOUNDARY     13   LAYER   1   ROW     1   COL    13   RATE     832.500    
 BOUNDARY     14   LAYER   1   ROW     1   COL    14   RATE     832.500    
 BOUNDARY     15   LAYER   1   ROW     1   COL    15   RATE     832.500    
 BOUNDARY     16   LAYER   1   ROW     2   COL     1   RATE     832.500    
 BOUNDARY     17   LAYER   1   ROW     2   COL     2   RATE     832.500    
 BOUNDARY     18   LAYER   1   ROW     2   COL     3   RATE     832.500    
 BOUNDARY     19   LAYER   1   ROW     2   COL     4   RATE     832.500    
 BOUNDARY     20   LAYER   1   ROW     2   COL     5   RATE     832.500    
 BOUNDARY     21   LAYER   1   ROW     2   COL     6   RATE     832.500    
 BOUNDARY     22   LAYER   1   ROW     2   COL     7   RATE     832.500    
 BOUNDARY     23   LAYER   1   ROW     2   COL     8   RATE     832.500    
 BOUNDARY     24   LAYER   1   ROW     2   COL     9   RATE     832.500    
 BOUNDARY     25   LAYER   1   ROW     2   COL    10   RATE     832.500    
 BOUNDARY     26   LAYER   1   ROW     2   COL    11   RATE     832.500    
 BOUNDARY     27   LAYER   1   ROW     2   COL    12   RATE     832.500    
 BOUNDARY     28   LAYER   1   ROW     2   COL    13   RATE     832.500    
 BOUNDARY     29   LAYER   1   ROW     2   COL    14   RATE     832.500    
 BOUNDARY     30   LAYER   1   ROW     2   COL    15   RATE     832.500    
 BOUNDARY     31   LAYER   1   ROW     3   COL     1   RATE     832.500    
 BOUNDARY     32   LAYER   1   ROW     3   COL     2   RATE     832.500    
 BOUNDARY     33   LAYER   1   ROW     3   COL     3   RATE     832.500    
 BOUNDARY     34   LAYER   1   ROW     3   COL     4   RATE     832.500    
 BOUNDARY     35   LAYER   1   ROW     3   COL     5   RATE     832.500    
 BOUNDARY     36   LAYER   1   ROW     3   COL     6   RATE     832.500    
 BOUNDARY     37   LAYER   1   ROW     3   COL     7   RATE     832.500    
 BOUNDARY     38   LAYER   1   ROW     3   COL     8   RATE     832.500    
 BOUNDARY     39   LAYER   1   ROW     3   COL     9   RATE     832.500    
 BOUNDARY     40   LAYER   1   ROW     3   COL    10   RATE     832.500    
 BOUNDARY     41   LAYER   1   ROW     3   COL    11   RATE     832.500    
 BOUNDARY     42   LAYER   1   ROW     3   COL    12   RATE     832.500    
 BOUNDARY     43   LAYER   1   ROW     3   COL    13   RATE     832.500    
 BOUNDARY     44   LAYER   1   ROW     3   COL    14   RATE     832.500    
 BOUNDARY     45   LAYER   1   ROW     3   COL    15   RATE     832.500    
 BOUNDARY     46   LAYER   1   ROW     4   COL     1   RATE     832.500    
 BOUNDARY     47   LAYER   1   ROW     4   COL     2   RATE     832.500    
 BOUNDARY     48   LAYER   1   ROW     4   COL     3   RATE     832.500    
 BOUNDARY     49   LAYER   1   ROW     4   COL     4   RATE     832.500    
 BOUNDARY     50   LAYER   1   ROW     4   COL     5   RATE     832.500    
 BOUNDARY     51   LAYER   1   ROW     4   COL     6   RATE     832.500    
 BOUNDARY     52   LAYER   1   ROW     4   COL     7   RATE     832.500    
 BOUNDARY     53   LAYER   1   ROW     4   COL     8   RATE     832.500    
 BOUNDARY     54   LAYER   1   ROW     4   COL     9   RATE     832.500    
 BOUNDARY     55   LAYER   1   ROW     4   COL    10   RATE     832.500    
 BOUNDARY     56   LAYER   1   ROW     4   COL    11   RATE     832.500    
 BOUNDARY     57   LAYER   1   ROW     4   COL    12   RATE     832.500    
 BOUNDARY     58   LAYER   1   ROW     4   COL    13   RATE     832.500    
 BOUNDARY     59   LAYER   1   ROW     4   COL    14   RATE     832.500    
 BOUNDARY     60   LAYER   1   ROW     4   COL    15   RATE     832.500    
 BOUNDARY     61   LAYER   1   ROW     5   COL     1   RATE     832.500    
 BOUNDARY     62   LAYER   1   ROW     5   COL     2   RATE     832.500    
 BOUNDARY     63   LAYER   1   ROW     5   COL     3   RATE     832.500    
 BOUNDARY     64   LAYER   1   ROW     5   COL     4   RATE     832.500    
 BOUNDARY     65   LAYER   1   ROW     5   COL     5   RATE     832.500    
 BOUNDARY     66   LAYER   1   ROW     5   COL     6   RATE     832.500    
 BOUNDARY     67   LAYER   1   ROW     5   COL     7   RATE     832.500    
 BOUNDARY     68   LAYER   1   ROW     5   COL     8   RATE     832.500    
 BOUNDARY     69   LAYER   1   ROW     5   COL     9   RATE     832.500    
 BOUNDARY     70   LAYER   1   ROW     5   COL    10   RATE     832.500    
 BOUNDARY     71   LAYER   1   ROW     5   COL    11   RATE     832.500    
 BOUNDARY     72   LAYER   1   ROW     5   COL    12   RATE     832.500    
 BOUNDARY     73   LAYER   1   ROW     5   COL    13   RATE     832.500    
 BOUNDARY     74   LAYER   1   ROW     5   COL    14   RATE     832.500    
 BOUNDARY     75   LAYER   1   ROW     5   COL    15   RATE     832.500    
 BOUNDARY     76   LAYER   1   ROW     6   COL     1   RATE     832.500    
 BOUNDARY     77   LAYER   1   ROW     6   COL     2   RATE     832.500    
 BOUNDARY     78   LAYER   1   ROW     6   COL     3   RATE     832.500    
 BOUNDARY     79   LAYER   1   ROW     6   COL     4   RATE     832.500    
 BOUNDARY     80   LAYER   1   ROW     6   COL     5   RATE     832.500    
 BOUNDARY     81   LAYER   1   ROW     6   COL     6   RATE     832.500    
 BOUNDARY     82   LAYER   1   ROW     6   COL     7   RATE     832.500    
 BOUNDARY     83   LAYER   1   ROW     6   COL     8   RATE     832.500    
 BOUNDARY     84   LAYER   1   ROW     6   COL     9   RATE     832.500    
 BOUNDARY     85   LAYER   1   ROW     6   COL    10   RATE     832.500    
 BOUNDARY     86   LAYER   1   ROW     6   COL    11   RATE     832.500    
 BOUNDARY     87   LAYER   1   ROW     6   COL    12   RATE     832.500    
 BOUNDARY     88   LAYER   1   ROW     6   COL    13   RATE     832.500    
 BOUNDARY     89   LAYER   1   ROW     6   COL    14   RATE     832.500    
 BOUNDARY     90   LAYER   1   ROW     6   COL    15   RATE     832.500    
 BOUNDARY     91   LAYER   1   ROW     7   COL     1   RATE     832.500    
 BOUNDARY     92   LAYER   1   ROW     7   COL     2   RATE     832.500    
 BOUNDARY     93   LAYER   1   ROW     7   COL     3   RATE     832.500    
 BOUNDARY     94   LAYER   1   ROW     7   COL     4   RATE     832.500    
 BOUNDARY     95   LAYER   1   ROW     7   COL     5   RATE     832.500    
 BOUNDARY     96   LAYER   1   ROW     7   COL     6   RATE     832.500    
 BOUNDARY     97   LAYER   1   ROW     7   COL     7   RATE     832.500    
 BOUNDARY     98   LAYER   1   ROW     7   COL     8   RATE     832.500    
 BOUNDARY     99   LAYER   1   ROW     7   COL     9   RATE     832.500    
 BOUNDARY    100   LAYER   1   ROW     7   COL    10   RATE     832.500    
 BOUNDARY    101   LAYER   1   ROW     7   COL    11   RATE     832.500    
 BOUNDARY    102   LAYER   1   ROW     7   COL    12   RATE     832.500    
 BOUNDARY    103   LAYER   1   ROW     7   COL    13   RATE     832.500    
 BOUNDARY    104   LAYER   1   ROW     7   COL    14   RATE     832.500    
 BOUNDARY    105   LAYER   1   ROW     7   COL    15   RATE     832.500    
 BOUNDARY    106   LAYER   1   ROW     8   COL     1   RATE     832.500    
 BOUNDARY    107   LAYER   1   ROW     8   COL     2   RATE     832.500    
 BOUNDARY    108   LAYER   1   ROW     8   COL     3   RATE     832.500    
 BOUNDARY    109   LAYER   1   ROW     8   COL     4   RATE     832.500    
 BOUNDARY    110   LAYER   1   ROW     8   COL     5   RATE     832.500    
 BOUNDARY    111   LAYER   1   ROW     8   COL     6   RATE     832.500    
 BOUNDARY    112   LAYER   1   ROW     8   COL     7   RATE     832.500    
 BOUNDARY    113   LAYER   1   ROW     8   COL     8   RATE     832.500    
 BOUNDARY    114   LAYER   1   ROW     8   COL     9   RATE     832.500    
 BOUNDARY    115   LAYER   1   ROW     8   COL    10   RATE     832.500    
 BOUNDARY    116   LAYER   1   ROW     8   COL    11   RATE     832.500    
 BOUNDARY    117   LAYER   1   ROW     8   COL    12   RATE     832.500    
 BOUNDARY    118   LAYER   1   ROW     8   COL    13   RATE     832.500    
 BOUNDARY    119   LAYER   1   ROW     8   COL    14   RATE     832.500    
 BOUNDARY    120   LAYER   1   ROW     8   COL    15   RATE     832.500    
 BOUNDARY    121   LAYER   1   ROW     9   COL     1   RATE     832.500    
 BOUNDARY    122   LAYER   1   ROW     9   COL     2   RATE     832.500    
 BOUNDARY    123   LAYER   1   ROW     9   COL     3   RATE     832.500    
 BOUNDARY    124   LAYER   1   ROW     9   COL     4   RATE     832.500    
 BOUNDARY    125   LAYER   1   ROW     9   COL     5   RATE     832.500    
 BOUNDARY    126   LAYER   1   ROW     9   COL     6   RATE     832.500    
 BOUNDARY    127   LAYER   1   ROW     9   COL     7   RATE     832.500    
 BOUNDARY    128   LAYER   1   ROW     9   COL     8   RATE     832.500    
 BOUNDARY    129   LAYER   1   ROW     9   COL     9   RATE     832.500    
 BOUNDARY    130   LAYER   1   ROW     9   COL    10   RATE     832.500    
 BOUNDARY    131   LAYER   1   ROW     9   COL    11   RATE     832.500    
 BOUNDARY    132   LAYER   1   ROW     9   COL    12   RATE     832.500    
 BOUNDARY    133   LAYER   1   ROW     9   COL    13   RATE     832.500    
 BOUNDARY    134   LAYER   1   ROW     9   COL    14   RATE     832.500    
 BOUNDARY    135   LAYER   1   ROW     9   COL    15   RATE     832.500    
 BOUNDARY    136   LAYER   1   ROW    10   COL     1   RATE     832.500    
 BOUNDARY    137   LAYER   1   ROW    10   COL     2   RATE     832.500    
 BOUNDARY    138   LAYER   1   ROW    10   COL     3   RATE     832.500    
 BOUNDARY    139   LAYER   1   ROW    10   COL     4   RATE     832.500    
 BOUNDARY    140   LAYER   1   ROW    10   COL     5   RATE     832.500    
 BOUNDARY    141   LAYER   1   ROW    10   COL     6   RATE     832.500    
 BOUNDARY    142   LAYER   1   ROW    10   COL     7   RATE     832.500    
 BOUNDARY    143   LAYER   1   ROW    10   COL     8   RATE     832.500    
 BOUNDARY    144   LAYER   1   ROW    10   COL     9   RATE     832.500    
 BOUNDARY    145   LAYER   1   ROW    10   COL    10   RATE     832.500    
 BOUNDARY    146   LAYER   1   ROW    10   COL    11   RATE     832.500    
 BOUNDARY    147   LAYER   1   ROW    10   COL    12   RATE     832.500    
 BOUNDARY    148   LAYER   1   ROW    10   COL    13   RATE     832.500    
 BOUNDARY    149   LAYER   1   ROW    10   COL    14   RATE     832.500    
 BOUNDARY    150   LAYER   1   ROW    10   COL    15   RATE     832.500    
 UBDSV4 SAVING ET SEGS          ON UNIT   1016 AT TIME STEP      4, STRESS PERIOD      6

 ET SEGS            PERIOD  6   STEP  4
 BOUNDARY      1   LAYER   1   ROW     1   COL     1   RATE    -3.49213    
 BOUNDARY      2   LAYER   1   ROW     1   COL     2   RATE    -11.1895    
 BOUNDARY      3   LAYER   1   ROW     1   COL     3   RATE    -72.5719    
 BOUNDARY      4   LAYER   1   ROW     1   COL     4   RATE   -100.0000    
 BOUNDARY      5   LAYER   1   ROW     1   COL     5   RATE   -100.0000    
 BOUNDARY      6   LAYER   1   ROW     1   COL     6   RATE   -100.0000    
 BOUNDARY      7   LAYER   1   ROW     1   COL     7   RATE   -100.0000    
 BOUNDARY      8   LAYER   1   ROW     1   COL     8   RATE   -100.0000    
 BOUNDARY      9   LAYER   1   ROW     1   COL     9   RATE   -100.0000    
 BOUNDARY     10   LAYER   1   ROW     1   COL    10   RATE   -100.0000    
 BOUNDARY     11   LAYER   1   ROW     1   COL    11   RATE   -100.0000    
 BOUNDARY     12   LAYER   1   ROW     1   COL    12   RATE    -21.4438    
 BOUNDARY     13   LAYER   1   ROW     1   COL    13   RATE   -0.498366    
 BOUNDARY     14   LAYER   1   ROW     1   COL    14   RATE     0.00000    
 BOUNDARY     15   LAYER   1   ROW     1   COL    15   RATE     0.00000    
 BOUNDARY     16   LAYER   1   ROW     2   COL     1   RATE     0.00000    
 BOUNDARY     17   LAYER   1   ROW     2   COL     2   RATE    -5.81205    
 BOUNDARY     18   LAYER   1   ROW     2   COL     3   RATE    -44.4640    
 BOUNDARY     19   LAYER   1   ROW     2   COL     4   RATE   -100.0000    
 BOUNDARY     20   LAYER   1   ROW     2   COL     5   RATE   -100.0000    
 BOUNDARY     21   LAYER   1   ROW     2   COL     6   RATE   -100.0000    
 BOUNDARY     22   LAYER   1   ROW     2   COL     7   RATE   -100.0000    
 BOUNDARY     23   LAYER   1   ROW     2   COL     8   RATE   -100.0000    
 BOUNDARY     24   LAYER   1   ROW     2   COL     9   RATE   -100.0000    
 BOUNDARY     25   LAYER   1   ROW     2   COL    10   RATE   -100.0000    
 BOUNDARY     26   LAYER   1   ROW     2   COL    11   RATE   -100.0000    
 BOUNDARY     27   LAYER   1   ROW     2   COL    12   RATE    -23.1873    
 BOUNDARY     28   LAYER   1   ROW     2   COL    13   RATE    -1.48423    
 BOUNDARY     29   LAYER   1   ROW     2   COL    14   RATE     0.00000    
 BOUNDARY     30   LAYER   1   ROW     2   COL    15   RATE     0.00000    
 BOUNDARY     31   LAYER   1   ROW     3   COL     1   RATE     0.00000    
 BOUNDARY     32   LAYER   1   ROW     3   COL     2   RATE     0.00000    
 BOUNDARY     33   LAYER   1   ROW     3   COL     3   RATE    -26.7743    
 BOUNDARY     34   LAYER   1   ROW     3   COL     4   RATE   -100.0000    
 BOUNDARY     35   LAYER   1   ROW     3   COL     5   RATE   -100.0000    
 BOUNDARY     36   LAYER   1   ROW     3   COL     6   RATE   -100.0000    
 BOUNDARY     37   LAYER   1   ROW     3   COL     7   RATE   -100.0000    
 BOUNDARY     38   LAYER   1   ROW     3   COL     8   RATE   -100.0000    
 BOUNDARY     39   LAYER   1   ROW     3   COL     9   RATE   -100.0000    
 BOUNDARY     40   LAYER   1   ROW     3   COL    10   RATE   -100.0000    
 BOUNDARY     41   LAYER   1   ROW     3   COL    11   RATE   -100.0000    
 BOUNDARY     42   LAYER   1   ROW     3   COL    12   RATE    -26.1238    
 BOUNDARY     43   LAYER   1   ROW     3   COL    13   RATE    -3.27901    
 BOUNDARY     44   LAYER   1   ROW     3   COL    14   RATE     0.00000    
 BOUNDARY     45   LAYER   1   ROW     3   COL    15   RATE     0.00000    
 BOUNDARY     46   LAYER   1   ROW     4   COL     1   RATE     0.00000    
 BOUNDARY     47   LAYER   1   ROW     4   COL     2   RATE    -4.30055    
 BOUNDARY     48   LAYER   1   ROW     4   COL     3   RATE    -33.5573    
 BOUNDARY     49   LAYER   1   ROW     4   COL     4   RATE   -100.0000    
 BOUNDARY     50   LAYER   1   ROW     4   COL     5   RATE   -100.0000    
 BOUNDARY     51   LAYER   1   ROW     4   COL     6   RATE   -100.0000    
 BOUNDARY     52   LAYER   1   ROW     4   COL     7   RATE   -100.0000    
 BOUNDARY     53   LAYER   1   ROW     4   COL     8   RATE   -100.0000    
 BOUNDARY     54   LAYER   1   ROW     4   COL     9   RATE   -100.0000    
 BOUNDARY     55   LAYER   1   ROW     4   COL    10   RATE   -100.0000    
 BOUNDARY     56   LAYER   1   ROW     4   COL    11   RATE   -100.0000    
 BOUNDARY     57   LAYER   1   ROW     4   COL    12   RATE    -28.9040    
 BOUNDARY     58   LAYER   1   ROW     4   COL    13   RATE    -4.72680    
 BOUNDARY     59   LAYER   1   ROW     4   COL    14   RATE     0.00000    
 BOUNDARY     60   LAYER   1   ROW     4   COL    15   RATE     0.00000    
 BOUNDARY     61   LAYER   1   ROW     5   COL     1   RATE     0.00000    
 BOUNDARY     62   LAYER   1   ROW     5   COL     2   RATE    -7.29200    
 BOUNDARY     63   LAYER   1   ROW     5   COL     3   RATE    -54.2159    
 BOUNDARY     64   LAYER   1   ROW     5   COL     4   RATE   -100.0000    
 BOUNDARY     65   LAYER   1   ROW     5   COL     5   RATE   -100.0000    
 BOUNDARY     66   LAYER   1   ROW     5   COL     6   RATE   -100.0000    
 BOUNDARY     67   LAYER   1   ROW     5   COL     7   RATE   -100.0000    
 BOUNDARY     68   LAYER   1   ROW     5   COL     8   RATE   -100.0000    
 BOUNDARY     69   LAYER   1   ROW     5   COL     9   RATE   -100.0000    
 BOUNDARY     70   LAYER   1   ROW     5   COL    10   RATE   -100.0000    
 BOUNDARY     71   LAYER   1   ROW     5   COL    11   RATE   -100.0000    
 BOUNDARY     72   LAYER   1   ROW     5   COL    12   RATE    -34.2215    
 BOUNDARY     73   LAYER   1   ROW     5   COL    13   RATE    -5.60422    
 BOUNDARY     74   LAYER   1   ROW     5   COL    14   RATE     0.00000    
 BOUNDARY     75   LAYER   1   ROW     5   COL    15   RATE     0.00000    
 BOUNDARY     76   LAYER   1   ROW     6   COL     1   RATE     0.00000    
 BOUNDARY     77   LAYER   1   ROW     6   COL     2   RATE    -5.82949    
 BOUNDARY     78   LAYER   1   ROW     6   COL     3   RATE    -57.8744    
 BOUNDARY     79   LAYER   1   ROW     6   COL     4   RATE   -100.0000    
 BOUNDARY     80   LAYER   1   ROW     6   COL     5   RATE   -100.0000    
 BOUNDARY     81   LAYER   1   ROW     6   COL     6   RATE   -100.0000    
 BOUNDARY     82   LAYER   1   ROW     6   COL     7   RATE   -100.0000    
 BOUNDARY     83   LAYER   1   ROW     6   COL     8   RATE   -100.0000    
 BOUNDARY     84   LAYER   1   ROW     6   COL     9   RATE   -100.0000    
 BOUNDARY     85   LAYER   1   ROW     6   COL    10   RATE   -100.0000    
 BOUNDARY     86   LAYER   1   ROW     6   COL    11   RATE   -100.0000    
 BOUNDARY     87   LAYER   1   ROW     6   COL    12   RATE    -37.5418    
 BOUNDARY     88   LAYER   1   ROW     6   COL    13   RATE    -5.55312    
 BOUNDARY     89   LAYER   1   ROW     6   COL    14   RATE     0.00000    
 BOUNDARY     90   LAYER   1   ROW     6   COL    15   RATE     0.00000    
 BOUNDARY     91   LAYER   1   ROW     7   COL     1   RATE     0.00000    
 BOUNDARY     92   LAYER   1   ROW     7   COL     2   RATE    -2.24644    
 BOUNDARY     93   LAYER   1   ROW     7   COL     3   RATE    -64.5576    
 BOUNDARY     94   LAYER   1   ROW     7   COL     4   RATE   -100.0000    
 BOUNDARY     95   LAYER   1   ROW     7   COL     5   RATE   -100.0000    
 BOUNDARY     96   LAYER   1   ROW     7   COL     6   RATE   -100.0000    
 BOUNDARY     97   LAYER   1   ROW     7   COL     7   RATE   -100.0000    
 BOUNDARY     98   LAYER   1   ROW     7   COL     8   RATE   -100.0000    
 BOUNDARY     99   LAYER   1   ROW     7   COL     9   RATE   -100.0000    
 BOUNDARY    100   LAYER   1   ROW     7   COL    10   RATE   -100.0000    
 BOUNDARY    101   LAYER   1   ROW     7   COL    11   RATE   -100.0000    
 BOUNDARY    102   LAYER   1   ROW     7   COL    12   RATE    -36.8215    
 BOUNDARY    103   LAYER   1   ROW     7   COL    13   RATE    -4.84113    
 BOUNDARY    104   LAYER   1   ROW     7   COL    14   RATE     0.00000    
 BOUNDARY    105   LAYER   1   ROW     7   COL    15   RATE     0.00000    
 BOUNDARY    106   LAYER   1   ROW     8   COL     1   RATE     0.00000    
 BOUNDARY    107   LAYER   1   ROW     8   COL     2   RATE    -15.6459    
 BOUNDARY    108   LAYER   1   ROW     8   COL     3   RATE   -100.0000    
 BOUNDARY    109   LAYER   1   ROW     8   COL     4   RATE   -100.0000    
 BOUNDARY    110   LAYER   1   ROW     8   COL     5   RATE   -100.0000    
 BOUNDARY    111   LAYER   1   ROW     8   COL     6   RATE   -100.0000    
 BOUNDARY    112   LAYER   1   ROW     8   COL     7   RATE   -100.0000    
 BOUNDARY    113   LAYER   1   ROW     8   COL     8   RATE   -100.0000    
 BOUNDARY    114   LAYER   1   ROW     8   COL     9   RATE   -100.0000    
 BOUNDARY    115   LAYER   1   ROW     8   COL    10   RATE   -100.0000    
 BOUNDARY    116   LAYER   1   ROW     8   COL    11   RATE   -100.0000    
 BOUNDARY    117   LAYER   1   ROW     8   COL    12   RATE    -39.0594    
 BOUNDARY    118   LAYER   1   ROW     8   COL    13   RATE    -4.88304    
 BOUNDARY    119   LAYER   1   ROW     8   COL    14   RATE     0.00000    
 BOUNDARY    120   LAYER   1   ROW     8   COL    15   RATE     0.00000    
 BOUNDARY    121   LAYER   1   ROW     9   COL     1   RATE    -23.2723    
 BOUNDARY    122   LAYER   1   ROW     9   COL     2   RATE    -83.9614    
 BOUNDARY    123   LAYER   1   ROW     9   COL     3   RATE   -100.0000    
 BOUNDARY    124   LAYER   1   ROW     9   COL     4   RATE   -100.0000    
 BOUNDARY    125   LAYER   1   ROW     9   COL     5   RATE   -100.0000    
 BOUNDARY    126   LAYER   1   ROW     9   COL     6   RATE   -100.0000    
 BOUNDARY    127   LAYER   1   ROW     9   COL     7   RATE   -100.0000    
 BOUNDARY    128   LAYER   1   ROW     9   COL     8   RATE   -100.0000    
 BOUNDARY    129   LAYER   1   ROW     9   COL     9   RATE   -100.0000    
 BOUNDARY    130   LAYER   1   ROW     9   COL    10   RATE   -100.0000    
 BOUNDARY    131   LAYER   1   ROW     9   COL    11   RATE   -100.0000    
 BOUNDARY    132   LAYER   1   ROW     9   COL    12   RATE    -45.0021    
 BOUNDARY    133   LAYER   1   ROW     9   COL    13   RATE    -5.75260    
 BOUNDARY    134   LAYER   1   ROW     9   COL    14   RATE     0.00000    
 BOUNDARY    135   LAYER   1   ROW     9   COL    15   RATE     0.00000    
 BOUNDARY    136   LAYER   1   ROW    10   COL     1   RATE    -92.1207    
 BOUNDARY    137   LAYER   1   ROW    10   COL     2   RATE   -100.0000    
 BOUNDARY    138   LAYER   1   ROW    10   COL     3   RATE   -100.0000    
 BOUNDARY    139   LAYER   1   ROW    10   COL     4   RATE   -100.0000    
 BOUNDARY    140   LAYER   1   ROW    10   COL     5   RATE   -100.0000    
 BOUNDARY    141   LAYER   1   ROW    10   COL     6   RATE   -100.0000    
 BOUNDARY    142   LAYER   1   ROW    10   COL     7   RATE   -100.0000    
 BOUNDARY    143   LAYER   1   ROW    10   COL     8   RATE   -100.0000    
 BOUNDARY    144   LAYER   1   ROW    10   COL     9   RATE   -100.0000    
 BOUNDARY    145   LAYER   1   ROW    10   COL    10   RATE   -100.0000    
 BOUNDARY    146   LAYER   1   ROW    10   COL    11   RATE   -100.0000    
 BOUNDARY    147   LAYER   1   ROW    10   COL    12   RATE    -49.2518    
 BOUNDARY    148   LAYER   1   ROW    10   COL    13   RATE    -6.30653    
 BOUNDARY    149   LAYER   1   ROW    10   COL    14   RATE     0.00000    
 BOUNDARY    150   LAYER   1   ROW    10   COL    15   RATE     0.00000    

 HEAD WILL BE SAVED ON UNIT 1017 AT END OF TIME STEP    4, STRESS PERIOD    6
RIV   no.    1 value from time series:   101.00     for time:  125.0     to  126.0    
RIV   no.    2 value from time series:   101.00     for time:  125.0     to  126.0    
RIV   no.    3 value from time series:   111.50     for time:  125.0     to  126.0    
RIV   no.    4 value from time series:   111.50     for time:  125.0     to  126.0    
RIV   no.    5 value from time series:   115.10     for time:  125.0     to  126.0    
RIV   no.    6 value from time series:   115.10     for time:  125.0     to  126.0    
RIV   no.    7 value from time series:   104.00     for time:  125.0     to  126.0    
RIV   no.    8 value from time series:   104.00     for time:  125.0     to  126.0    
RIV   no.    9 value from time series:   113.50     for time:  125.0     to  126.0    
RIV   no.   10 value from time series:   113.50     for time:  125.0     to  126.0    
RIV   no.    1 value from time series:   101.00     for time:  125.0     to  126.0    
RIV   no.    2 value from time series:   101.00     for time:  125.0     to  126.0    
RIV   no.    3 value from time series:   111.50     for time:  125.0     to  126.0    
RIV   no.    4 value from time series:   111.50     for time:  125.0     to  126.0    
RIV   no.    5 value from time series:   115.10     for time:  125.0     to  126.0    
RIV   no.    6 value from time series:   115.10     for time:  125.0     to  126.0    
RIV   no.    7 value from time series:   104.00     for time:  125.0     to  126.0    
RIV   no.    8 value from time series:   104.00     for time:  125.0     to  126.0    
RIV   no.    9 value from time series:   113.50     for time:  125.0     to  126.0    
RIV   no.   10 value from time series:   113.50     for time:  125.0     to  126.0    

 OUTPUT CONTROL FOR STRESS PERIOD    6   TIME STEP    5
    SAVE BUDGET
    SAVE HEAD
    SAVE HEAD FOR ALL LAYERS
 UBDSV1 SAVING          STORAGE ON UNIT   1016 AT TIME STEP      5, STRESS PERIOD      6
 UBDSV1 SAVING FLOW RIGHT FACE  ON UNIT   1016 AT TIME STEP      5, STRESS PERIOD      6
 UBDSV1 SAVING FLOW FRONT FACE  ON UNIT   1016 AT TIME STEP      5, STRESS PERIOD      6
 UBDSV1 SAVING FLOW LOWER FACE  ON UNIT   1016 AT TIME STEP      5, STRESS PERIOD      6
 UBDSV4 SAVING WELLS NEAR RIVER ON UNIT   1016 AT TIME STEP      5, STRESS PERIOD      6
 UBDSV4 SAVING RIVER            ON UNIT   1016 AT TIME STEP      5, STRESS PERIOD      6

 RIVER              PERIOD  6   STEP  5
 BOUNDARY      1   LAYER   1   ROW     1   COL    15   RATE    -5009.38    
 BOUNDARY      2   LAYER   1   ROW     2   COL    15   RATE    -6136.15      RIV2
 BOUNDARY      3   LAYER   1   ROW     3   COL    15   RATE    -2401.29      RIV3
 BOUNDARY      4   LAYER   1   ROW     4   COL    15   RATE    -3866.22    
 BOUNDARY      5   LAYER   1   ROW     5   COL    15   RATE    -2502.52    
 BOUNDARY      6   LAYER   1   ROW     6   COL    15   RATE    -1849.29    
 BOUNDARY      7   LAYER   1   ROW     7   COL    15   RATE    -6335.75      RIVX
 BOUNDARY      8   LAYER   1   ROW     8   COL    15   RATE    -6186.20      RIVX
 BOUNDARY      9   LAYER   1   ROW     9   COL    15   RATE    -2395.71      RIVX
 BOUNDARY     10   LAYER   1   ROW    10   COL    15   RATE    -3303.13    

 GHB LAKES          PERIOD  6   STEP  5
 BOUNDARY      1   LAYER   1   ROW     3   COL     1   RATE    -14960.6    
 BOUNDARY      2   LAYER   1   ROW     7   COL     1   RATE    -2230.29      GHB2_UPPER
 BOUNDARY      3   LAYER   1   ROW     7   COL     1   RATE    -13374.6      GHB2_LOWER
 UBDSV4 SAVING RECHARGE         ON UNIT   1016 AT TIME STEP      5, STRESS PERIOD      6

 RECHARGE           PERIOD  6   STEP  5
 BOUNDARY      1   LAYER   1   ROW     1   COL     1   RATE     834.167    
 BOUNDARY      2   LAYER   1   ROW     1   COL     2   RATE     834.167    
 BOUNDARY      3   LAYER   1   ROW     1   COL     3   RATE     834.167    
 BOUNDARY      4   LAYER   1   ROW     1   COL     4   RATE     834.167    
 BOUNDARY      5   LAYER   1   ROW     1   COL     5   RATE     834.167    
 BOUNDARY      6   LAYER   1   ROW     1   COL     6   RATE     834.167    
 BOUNDARY      7   LAYER   1   ROW     1   COL     7   RATE     834.167    
 BOUNDARY      8   LAYER   1   ROW     1   COL     8   RATE     834.167    
 BOUNDARY      9   LAYER   1   ROW     1   COL     9   RATE     834.167    
 BOUNDARY     10   LAYER   1   ROW     1   COL    10   RATE     834.167    
 BOUNDARY     11   LAYER   1   ROW     1   COL    11   RATE     834.167    
 BOUNDARY     12   LAYER   1   ROW     1   COL    12   RATE     834.167    
 BOUNDARY     13   LAYER   1   ROW     1   COL    13   RATE     834.167    
 BOUNDARY     14   LAYER   1   ROW     1   COL    14   RATE     834.167    
 BOUNDARY     15   LAYER   1   ROW     1   COL    15   RATE     834.167    
 BOUNDARY     16   LAYER   1   ROW     2   COL     1   RATE     834.167    
 BOUNDARY     17   LAYER   1   ROW     2   COL     2   RATE     834.167    
 BOUNDARY     18   LAYER   1   ROW     2   COL     3   RATE     834.167    
 BOUNDARY     19   LAYER   1   ROW     2   COL     4   RATE     834.167    
 BOUNDARY     20   LAYER   1   ROW     2   COL     5   RATE     834.167    
 BOUNDARY     21   LAYER   1   ROW     2   COL     6   RATE     834.167    
 BOUNDARY     22   LAYER   1   ROW     2   COL     7   RATE     834.167    
 BOUNDARY     23   LAYER   1   ROW     2   COL     8   RATE     834.167    
 BOUNDARY     24   LAYER   1   ROW     2   COL     9   RATE     834.167    
 BOUNDARY     25   LAYER   1   ROW     2   COL    10   RATE     834.167    
 BOUNDARY     26   LAYER   1   ROW     2   COL    11   RATE     834.167    
 BOUNDARY     27   LAYER   1   ROW     2   COL    12   RATE     834.167    
 BOUNDARY     28   LAYER   1   ROW     2   COL    13   RATE     834.167    
 BOUNDARY     29   LAYER   1   ROW     2   COL    14   RATE     834.167    
 BOUNDARY     30   LAYER   1   ROW     2   COL    15   RATE     834.167    
 BOUNDARY     31   LAYER   1   ROW     3   COL     1   RATE     834.167    
 BOUNDARY     32   LAYER   1   ROW     3   COL     2   RATE     834.167    
 BOUNDARY     33   LAYER   1   ROW     3   COL     3   RATE     834.167    
 BOUNDARY     34   LAYER   1   ROW     3   COL     4   RATE     834.167    
 BOUNDARY     35   LAYER   1   ROW     3   COL     5   RATE     834.167    
 BOUNDARY     36   LAYER   1   ROW     3   COL     6   RATE     834.167    
 BOUNDARY     37   LAYER   1   ROW     3   COL     7   RATE     834.167    
 BOUNDARY     38   LAYER   1   ROW     3   COL     8   RATE     834.167    
 BOUNDARY     39   LAYER   1   ROW     3   COL     9   RATE     834.167    
 BOUNDARY     40   LAYER   1   ROW     3   COL    10   RATE     834.167    
 BOUNDARY     41   LAYER   1   ROW     3   COL    11   RATE     834.167    
 BOUNDARY     42   LAYER   1   ROW     3   COL    12   RATE     834.167    
 BOUNDARY     43   LAYER   1   ROW     3   COL    13   RATE     834.167    
 BOUNDARY     44   LAYER   1   ROW     3   COL    14   RATE     834.167    
 BOUNDARY     45   LAYER   1   ROW     3   COL    15   RATE     834.167    
 BOUNDARY     46   LAYER   1   ROW     4   COL     1   RATE     834.167    
 BOUNDARY     47   LAYER   1   ROW     4   COL     2   RATE     834.167    
 BOUNDARY     48   LAYER   1   ROW     4   COL     3   RATE     834.167    
 BOUNDARY     49   LAYER   1   ROW     4   COL     4   RATE     834.167    
 BOUNDARY     50   LAYER   1   ROW     4   COL     5   RATE     834.167    
 BOUNDARY     51   LAYER   1   ROW     4   COL     6   RATE     834.167    
 BOUNDARY     52   LAYER   1   ROW     4   COL     7   RATE     834.167    
 BOUNDARY     53   LAYER   1   ROW     4   COL     8   RATE     834.167    
 BOUNDARY     54   LAYER   1   ROW     4   COL     9   RATE     834.167    
 BOUNDARY     55   LAYER   1   ROW     4   COL    10   RATE     834.167    
 BOUNDARY     56   LAYER   1   ROW     4   COL    11   RATE     834.167    
 BOUNDARY     57   LAYER   1   ROW     4   COL    12   RATE     834.167    
 BOUNDARY     58   LAYER   1   ROW     4   COL    13   RATE     834.167    
 BOUNDARY     59   LAYER   1   ROW     4   COL    14   RATE     834.167    
 BOUNDARY     60   LAYER   1   ROW     4   COL    15   RATE     834.167    
 BOUNDARY     61   LAYER   1   ROW     5   COL     1   RATE     834.167    
 BOUNDARY     62   LAYER   1   ROW     5   COL     2   RATE     834.167    
 BOUNDARY     63   LAYER   1   ROW     5   COL     3   RATE     834.167    
 BOUNDARY     64   LAYER   1   ROW     5   COL     4   RATE     834.167    
 BOUNDARY     65   LAYER   1   ROW     5   COL     5   RATE     834.167    
 BOUNDARY     66   LAYER   1   ROW     5   COL     6   RATE     834.167    
 BOUNDARY     67   LAYER   1   ROW     5   COL     7   RATE     834.167    
 BOUNDARY     68   LAYER   1   ROW     5   COL     8   RATE     834.167    
 BOUNDARY     69   LAYER   1   ROW     5   COL     9   RATE     834.167    
 BOUNDARY     70   LAYER   1   ROW     5   COL    10   RATE     834.167    
 BOUNDARY     71   LAYER   1   ROW     5   COL    11   RATE     834.167    
 BOUNDARY     72   LAYER   1   ROW     5   COL    12   RATE     834.167    
 BOUNDARY     73   LAYER   1   ROW     5   COL    13   RATE     834.167    
 BOUNDARY     74   LAYER   1   ROW     5   COL    14   RATE     834.167    
 BOUNDARY     75   LAYER   1   ROW     5   COL    15   RATE     834.167    
 BOUNDARY     76   LAYER   1   ROW     6   COL     1   RATE     834.167    
 BOUNDARY     77   LAYER   1   ROW     6   COL     2   RATE     834.167    
 BOUNDARY     78   LAYER   1   ROW     6   COL     3   RATE     834.167    
 BOUNDARY     79   LAYER   1   ROW     6   COL     4   RATE     834.167    
 BOUNDARY     80   LAYER   1   ROW     6   COL     5   RATE     834.167    
 BOUNDARY     81   LAYER   1   ROW     6   COL     6   RATE     834.167    
 BOUNDARY     82   LAYER   1   ROW     6   COL     7   RATE     834.167    
 BOUNDARY     83   LAYER   1   ROW     6   COL     8   RATE     834.167    
 BOUNDARY     84   LAYER   1   ROW     6   COL     9   RATE     834.167    
 BOUNDARY     85   LAYER   1   ROW     6   COL    10   RATE     834.167    
 BOUNDARY     86   LAYER   1   ROW     6   COL    11   RATE     834.167    
 BOUNDARY     87   LAYER   1   ROW     6   COL    12   RATE     834.167    
 BOUNDARY     88   LAYER   1   ROW     6   COL    13   RATE     834.167    
 BOUNDARY     89   LAYER   1   ROW     6   COL    14   RATE     834.167    
 BOUNDARY     90   LAYER   1   ROW     6   COL    15   RATE     834.167    
 BOUNDARY     91   LAYER   1   ROW     7   COL     1   RATE     834.167    
 BOUNDARY     92   LAYER   1   ROW     7   COL     2   RATE     834.167    
 BOUNDARY     93   LAYER   1   ROW     7   COL     3   RATE     834.167    
 BOUNDARY     94   LAYER   1   ROW     7   COL     4   RATE     834.167    
 BOUNDARY     95   LAYER   1   ROW     7   COL     5   RATE     834.167    
 BOUNDARY     96   LAYER   1   ROW     7   COL     6   RATE     834.167    
 BOUNDARY     97   LAYER   1   ROW     7   COL     7   RATE     834.167    
 BOUNDARY     98   LAYER   1   ROW     7   COL     8   RATE     834.167    
 BOUNDARY     99   LAYER   1   ROW     7   COL     9   RATE     834.167    
 BOUNDARY    100   LAYER   1   ROW     7   COL    10   RATE     834.167    
 BOUNDARY    101   LAYER   1   ROW     7   COL    11   RATE     834.167    
 BOUNDARY    102   LAYER   1   ROW     7   COL    12   RATE     834.167    
 BOUNDARY    103   LAYER   1   ROW     7   COL    13   RATE     834.167    
 BOUNDARY    104   LAYER   1   ROW     7   COL    14   RATE     834.167    
 BOUNDARY    105   LAYER   1   ROW     7   COL    15   RATE     834.167    
 BOUNDARY    106   LAYER   1   ROW     8   COL     1   RATE     834.167    
 BOUNDARY    107   LAYER   1   ROW     8   COL     2   RATE     834.167    
 BOUNDARY    108   LAYER   1   ROW     8   COL     3   RATE     834.167    
 BOUNDARY    109   LAYER   1   ROW     8   COL     4   RATE     834.167    
 BOUNDARY    110   LAYER   1   ROW     8   COL     5   RATE     834.167    
 BOUNDARY    111   LAYER   1   ROW     8   COL     6   RATE     834.167    
 BOUNDARY    112   LAYER   1   ROW     8   COL     7   RATE     834.167    
 BOUNDARY    113   LAYER   1   ROW     8   COL     8   RATE     834.167    
 BOUNDARY    114   LAYER   1   ROW     8   COL     9   RATE     834.167    
 BOUNDARY    115   LAYER   1   ROW     8   COL    10   RATE     834.167    
 BOUNDARY    116   LAYER   1   ROW     8   COL    11   RATE     834.167    
 BOUNDARY    117   LAYER   1   ROW     8   COL    12   RATE     834.167    
 BOUNDARY    118   LAYER   1   ROW     8   COL    13   RATE     834.167    
 BOUNDARY    119   LAYER   1   ROW     8   COL    14   RATE     834.167    
 BOUNDARY    120   LAYER   1   ROW     8   COL    15   RATE     834.167    
 BOUNDARY    121   LAYER   1   ROW     9   COL     1   RATE     834.167    
 BOUNDARY    122   LAYER   1   ROW     9   COL     2   RATE     834.167    
 BOUNDARY    123   LAYER   1   ROW     9   COL     3   RATE     834.167    
 BOUNDARY    124   LAYER   1   ROW     9   COL     4   RATE     834.167    
 BOUNDARY    125   LAYER   1   ROW     9   COL     5   RATE     834.167    
 BOUNDARY    126   LAYER   1   ROW     9   COL     6   RATE     834.167    
 BOUNDARY    127   LAYER   1   ROW     9   COL     7   RATE     834.167    
 BOUNDARY    128   LAYER   1   ROW     9   COL     8   RATE     834.167    
 BOUNDARY    129   LAYER   1   ROW     9   COL     9   RATE     834.167    
 BOUNDARY    130   LAYER   1   ROW     9   COL    10   RATE     834.167    
 BOUNDARY    131   LAYER   1   ROW     9   COL    11   RATE     834.167    
 BOUNDARY    132   LAYER   1   ROW     9   COL    12   RATE     834.167    
 BOUNDARY    133   LAYER   1   ROW     9   COL    13   RATE     834.167    
 BOUNDARY    134   LAYER   1   ROW     9   COL    14   RATE     834.167    
 BOUNDARY    135   LAYER   1   ROW     9   COL    15   RATE     834.167    
 BOUNDARY    136   LAYER   1   ROW    10   COL     1   RATE     834.167    
 BOUNDARY    137   LAYER   1   ROW    10   COL     2   RATE     834.167    
 BOUNDARY    138   LAYER   1   ROW    10   COL     3   RATE     834.167    
 BOUNDARY    139   LAYER   1   ROW    10   COL     4   RATE     834.167    
 BOUNDARY    140   LAYER   1   ROW    10   COL     5   RATE     834.167    
 BOUNDARY    141   LAYER   1   ROW    10   COL     6   RATE     834.167    
 BOUNDARY    142   LAYER   1   ROW    10   COL     7   RATE     834.167    
 BOUNDARY    143   LAYER   1   ROW    10   COL     8   RATE     834.167    
 BOUNDARY    144   LAYER   1   ROW    10   COL     9   RATE     834.167    
 BOUNDARY    145   LAYER   1   ROW    10   COL    10   RATE     834.167    
 BOUNDARY    146   LAYER   1   ROW    10   COL    11   RATE     834.167    
 BOUNDARY    147   LAYER   1   ROW    10   COL    12   RATE     834.167    
 BOUNDARY    148   LAYER   1   ROW    10   COL    13   RATE     834.167    
 BOUNDARY    149   LAYER   1   ROW    10   COL    14   RATE     834.167    
 BOUNDARY    150   LAYER   1   ROW    10   COL    15   RATE     834.167    
 UBDSV4 SAVING ET SEGS          ON UNIT   1016 AT TIME STEP      5, STRESS PERIOD      6

 ET SEGS            PERIOD  6   STEP  5
 BOUNDARY      1   LAYER   1   ROW     1   COL     1   RATE    -3.51688    
 BOUNDARY      2   LAYER   1   ROW     1   COL     2   RATE    -11.2733    
 BOUNDARY      3   LAYER   1   ROW     1   COL     3   RATE    -73.0104    
 BOUNDARY      4   LAYER   1   ROW     1   COL     4   RATE   -100.0000    
 BOUNDARY      5   LAYER   1   ROW     1   COL     5   RATE   -100.0000    
 BOUNDARY      6   LAYER   1   ROW     1   COL     6   RATE   -100.0000    
 BOUNDARY      7   LAYER   1   ROW     1   COL     7   RATE   -100.0000    
 BOUNDARY      8   LAYER   1   ROW     1   COL     8   RATE   -100.0000    
 BOUNDARY      9   LAYER   1   ROW     1   COL     9   RATE   -100.0000    
 BOUNDARY     10   LAYER   1   ROW     1   COL    10   RATE   -100.0000    
 BOUNDARY     11   LAYER   1   ROW     1   COL    11   RATE   -100.0000    
 BOUNDARY     12   LAYER   1   ROW     1   COL    12   RATE    -21.5294    
 BOUNDARY     13   LAYER   1   ROW     1   COL    13   RATE   -0.523036    
 BOUNDARY     14   LAYER   1   ROW     1   COL    14   RATE     0.00000    
 BOUNDARY     15   LAYER   1   ROW     1   COL    15   RATE     0.00000    
 BOUNDARY     16   LAYER   1   ROW     2   COL     1   RATE     0.00000    
 BOUNDARY     17   LAYER   1   ROW     2   COL     2   RATE    -5.83656    
 BOUNDARY     18   LAYER   1   ROW     2   COL     3   RATE    -44.9018    
 BOUNDARY     19   LAYER   1   ROW     2   COL     4   RATE   -100.0000    
 BOUNDARY     20   LAYER   1   ROW     2   COL     5   RATE   -100.0000    
 BOUNDARY     21   LAYER   1   ROW     2   COL     6   RATE   -100.0000    
 BOUNDARY     22   LAYER   1   ROW     2   COL     7   RATE   -100.0000    
 BOUNDARY     23   LAYER   1   ROW     2   COL     8   RATE   -100.0000    
 BOUNDARY     24   LAYER   1   ROW     2   COL     9   RATE   -100.0000    
 BOUNDARY     25   LAYER   1   ROW     2   COL    10   RATE   -100.0000    
 BOUNDARY     26   LAYER   1   ROW     2   COL    11   RATE   -100.0000    
 BOUNDARY     27   LAYER   1   ROW     2   COL    12   RATE    -23.2730    
 BOUNDARY     28   LAYER   1   ROW     2   COL    13   RATE    -1.50892    
 BOUNDARY     29   LAYER   1   ROW     2   COL    14   RATE     0.00000    
 BOUNDARY     30   LAYER   1   ROW     2   COL    15   RATE     0.00000    
 BOUNDARY     31   LAYER   1   ROW     3   COL     1   RATE     0.00000    
 BOUNDARY     32   LAYER   1   ROW     3   COL     2   RATE     0.00000    
 BOUNDARY     33   LAYER   1   ROW     3   COL     3   RATE    -26.8579    
 BOUNDARY     34   LAYER   1   ROW     3   COL     4   RATE   -100.0000    
 BOUNDARY     35   LAYER   1   ROW     3   COL     5   RATE   -100.0000    
 BOUNDARY     36   LAYER   1   ROW     3   COL     6   RATE   -100.0000    
 BOUNDARY     37   LAYER   1   ROW     3   COL     7   RATE   -100.0000    
 BOUNDARY     38   LAYER   1   ROW     3   COL     8   RATE   -100.0000    
 BOUNDARY     39   LAYER   1   ROW     3   COL     9   RATE   -100.0000    
 BOUNDARY     40   LAYER   1   ROW     3   COL    10   RATE   -100.0000    
 BOUNDARY     41   LAYER   1   ROW     3   COL    11   RATE   -100.0000    
 BOUNDARY     42   LAYER   1   ROW     3   COL    12   RATE    -26.2095    
 BOUNDARY     43   LAYER   1   ROW     3   COL    13   RATE    -3.30369    
 BOUNDARY     44   LAYER   1   ROW     3   COL    14   RATE     0.00000    
 BOUNDARY     45   LAYER   1   ROW     3   COL    15   RATE     0.00000    
 BOUNDARY     46   LAYER   1   ROW     4   COL     1   RATE     0.00000    
 BOUNDARY     47   LAYER   1   ROW     4   COL     2   RATE    -4.32490    
 BOUNDARY     48   LAYER   1   ROW     4   COL     3   RATE    -33.9951    
 BOUNDARY     49   LAYER   1   ROW     4   COL     4   RATE   -100.0000    
 BOUNDARY     50   LAYER   1   ROW     4   COL     5   RATE   -100.0000    
 BOUNDARY     51   LAYER   1   ROW     4   COL     6   RATE   -100.0000    
 BOUNDARY     52   LAYER   1   ROW     4   COL     7   RATE   -100.0000    
 BOUNDARY     53   LAYER   1   ROW     4   COL     8   RATE   -100.0000    
 BOUNDARY     54   LAYER   1   ROW     4   COL     9   RATE   -100.0000    
 BOUNDARY     55   LAYER   1   ROW     4   COL    10   RATE   -100.0000    
 BOUNDARY     56   LAYER   1   ROW     4   COL    11   RATE   -100.0000    
 BOUNDARY     57   LAYER   1   ROW     4   COL    12   RATE    -28.9895    
 BOUNDARY     58   LAYER   1   ROW     4   COL    13   RATE    -4.75138    
 BOUNDARY     59   LAYER   1   ROW     4   COL    14   RATE     0.00000    
 BOUNDARY     60   LAYER   1   ROW     4   COL    15   RATE     0.00000    
 BOUNDARY     61   LAYER   1   ROW     5   COL     1   RATE     0.00000    
 BOUNDARY     62   LAYER   1   ROW     5   COL     2   RATE    -7.31669    
 BOUNDARY     63   LAYER   1   ROW     5   COL     3   RATE    -54.6491    
 BOUNDARY     64   LAYER   1   ROW     5   COL     4   RATE   -100.0000    
 BOUNDARY     65   LAYER   1   ROW     5   COL     5   RATE   -100.0000    
 BOUNDARY     66   LAYER   1   ROW     5   COL     6   RATE   -100.0000    
 BOUNDARY     67   LAYER   1   ROW     5   COL     7   RATE   -100.0000    
 BOUNDARY     68   LAYER   1   ROW     5   COL     8   RATE   -100.0000    
 BOUNDARY     69   LAYER   1   ROW     5   COL     9   RATE   -100.0000    
 BOUNDARY     70   LAYER   1   ROW     5   COL    10   RATE   -100.0000    
 BOUNDARY     71   LAYER   1   ROW     5   COL    11   RATE   -100.0000    
 BOUNDARY     72   LAYER   1   ROW     5   COL    12   RATE    -34.6645    
 BOUNDARY     73   LAYER   1   ROW     5   COL    13   RATE    -5.62863    
 BOUNDARY     74   LAYER   1   ROW     5   COL    14   RATE     0.00000    
 BOUNDARY     75   LAYER   1   ROW     5   COL    15   RATE     0.00000    
 BOUNDARY     76   LAYER   1   ROW     6   COL     1   RATE     0.00000    
 BOUNDARY     77   LAYER   1   ROW     6   COL     2   RATE    -5.85338    
 BOUNDARY     78   LAYER   1   ROW     6   COL     3   RATE    -58.3011    
 BOUNDARY     79   LAYER   1   ROW     6   COL     4   RATE   -100.0000    
 BOUNDARY     80   LAYER   1   ROW     6   COL     5   RATE   -100.0000    
 BOUNDARY     81   LAYER   1   ROW     6   COL     6   RATE   -100.0000    
 BOUNDARY     82   LAYER   1   ROW     6   COL     7   RATE   -100.0000    
 BOUNDARY     83   LAYER   1   ROW     6   COL     8   RATE   -100.0000    
 BOUNDARY     84   LAYER   1   ROW     6   COL     9   RATE   -100.0000    
 BOUNDARY     85   LAYER   1   ROW     6   COL    10   RATE   -100.0000    
 BOUNDARY     86   LAYER   1   ROW     6   COL    11   RATE   -100.0000    
 BOUNDARY     87   LAYER   1   ROW     6   COL    12   RATE    -37.9823    
 BOUNDARY     88   LAYER   1   ROW     6   COL    13   RATE    -5.57747    
 BOUNDARY     89   LAYER   1   ROW     6   COL    14   RATE     0.00000    
 BOUNDARY     90   LAYER   1   ROW     6   COL    15   RATE     0.00000    
 BOUNDARY     91   LAYER   1   ROW     7   COL     1   RATE     0.00000    
 BOUNDARY     92   LAYER   1   ROW     7   COL     2   RATE    -2.26850    
 BOUNDARY     93   LAYER   1   ROW     7   COL     3   RATE    -64.9785    
 BOUNDARY     94   LAYER   1   ROW     7   COL     4   RATE   -100.0000    
 BOUNDARY     95   LAYER   1   ROW     7   COL     5   RATE   -100.0000    
 BOUNDARY     96   LAYER   1   ROW     7   COL     6   RATE   -100.0000    
 BOUNDARY     97   LAYER   1   ROW     7   COL     7   RATE   -100.0000    
 BOUNDARY     98   LAYER   1   ROW     7   COL     8   RATE   -100.0000    
 BOUNDARY     99   LAYER   1   ROW     7   COL     9   RATE   -100.0000    
 BOUNDARY    100   LAYER   1   ROW     7   COL    10   RATE   -100.0000    
 BOUNDARY    101   LAYER   1   ROW     7   COL    11   RATE   -100.0000    
 BOUNDARY    102   LAYER   1   ROW     7   COL    12   RATE    -37.2632    
 BOUNDARY    103   LAYER   1   ROW     7   COL    13   RATE    -4.86566    
 BOUNDARY    104   LAYER   1   ROW     7   COL    14   RATE     0.00000    
 BOUNDARY    105   LAYER   1   ROW     7   COL    15   RATE     0.00000    
 BOUNDARY    106   LAYER   1   ROW     8   COL     1   RATE     0.00000    
 BOUNDARY    107   LAYER   1   ROW     8   COL     2   RATE    -15.7253    
 BOUNDARY    108   LAYER   1   ROW     8   COL     3   RATE   -100.0000    
 BOUNDARY    109   LAYER   1   ROW     8   COL     4   RATE   -100.0000    
 BOUNDARY    110   LAYER   1   ROW     8   COL     5   RATE   -100.0000    
 BOUNDARY    111   LAYER   1   ROW     8   COL     6   RATE   -100.0000    
 BOUNDARY    112   LAYER   1   ROW     8   COL     7   RATE   -100.0000    
 BOUNDARY    113   LAYER   1   ROW     8   COL     8   RATE   -100.0000    
 BOUNDARY    114   LAYER   1   ROW     8   COL     9   RATE   -100.0000    
 BOUNDARY    115   LAYER   1   ROW     8   COL    10   RATE   -100.0000    
 BOUNDARY    116   LAYER   1   ROW     8   COL    11   RATE   -100.0000    
 BOUNDARY    117   LAYER   1   ROW     8   COL    12   RATE    -39.5025    
 BOUNDARY    118   LAYER   1   ROW     8   COL    13   RATE    -4.90785    
 BOUNDARY    119   LAYER   1   ROW     8   COL    14   RATE     0.00000    
 BOUNDARY    120   LAYER   1   ROW     8   COL    15   RATE     0.00000    
 BOUNDARY    121   LAYER   1   ROW     9   COL     1   RATE    -23.3530    
 BOUNDARY    122   LAYER   1   ROW     9   COL     2   RATE    -84.3897    
 BOUNDARY    123   LAYER   1   ROW     9   COL     3   RATE   -100.0000    
 BOUNDARY    124   LAYER   1   ROW     9   COL     4   RATE   -100.0000    
 BOUNDARY    125   LAYER   1   ROW     9   COL     5   RATE   -100.0000    
 BOUNDARY    126   LAYER   1   ROW     9   COL     6   RATE   -100.0000    
 BOUNDARY    127   LAYER   1   ROW     9   COL     7   RATE   -100.0000    
 BOUNDARY    128   LAYER   1   ROW     9   COL     8   RATE   -100.0000    
 BOUNDARY    129   LAYER   1   ROW     9   COL     9   RATE   -100.0000    
 BOUNDARY    130   LAYER   1   ROW     9   COL    10   RATE   -100.0000    
 BOUNDARY    131   LAYER   1   ROW     9   COL    11   RATE   -100.0000    
 BOUNDARY    132   LAYER   1   ROW     9   COL    12   RATE    -45.4463    
 BOUNDARY    133   LAYER   1   ROW     9   COL    13   RATE    -5.77768    
 BOUNDARY    134   LAYER   1   ROW     9   COL    14   RATE     0.00000    
 BOUNDARY    135   LAYER   1   ROW     9   COL    15   RATE     0.00000    
 BOUNDARY    136   LAYER   1   ROW    10   COL     1   RATE    -92.5492    
 BOUNDARY    137   LAYER   1   ROW    10   COL     2   RATE   -100.0000    
 BOUNDARY    138   LAYER   1   ROW    10   COL     3   RATE   -100.0000    
 BOUNDARY    139   LAYER   1   ROW    10   COL     4   RATE   -100.0000    
 BOUNDARY    140   LAYER   1   ROW    10   COL     5   RATE   -100.0000    
 BOUNDARY    141   LAYER   1   ROW    10   COL     6   RATE   -100.0000    
 BOUNDARY    142   LAYER   1   ROW    10   COL     7   RATE   -100.0000    
 BOUNDARY    143   LAYER   1   ROW    10   COL     8   RATE   -100.0000    
 BOUNDARY    144   LAYER   1   ROW    10   COL     9   RATE   -100.0000    
 BOUNDARY    145   LAYER   1   ROW    10   COL    10   RATE   -100.0000    
 BOUNDARY    146   LAYER   1   ROW    10   COL    11   RATE   -100.0000    
 BOUNDARY    147   LAYER   1   ROW    10   COL    12   RATE    -49.6970    
 BOUNDARY    148   LAYER   1   ROW    10   COL    13   RATE    -6.33179    
 BOUNDARY    149   LAYER   1   ROW    10   COL    14   RATE     0.00000    
 BOUNDARY    150   LAYER   1   ROW    10   COL    15   RATE     0.00000    

 HEAD WILL BE SAVED ON UNIT 1017 AT END OF TIME STEP    5, STRESS PERIOD    6
RIV   no.    1 value from time series:   101.00     for time:  126.0     to  127.0    
RIV   no.    2 value from time series:   101.00     for time:  126.0     to  127.0    
RIV   no.    3 value from time series:   111.50     for time:  126.0     to  127.0    
RIV   no.    4 value from time series:   111.50     for time:  126.0     to  127.0    
RIV   no.    5 value from time series:   115.10     for time:  126.0     to  127.0    
RIV   no.    6 value from time series:   115.10     for time:  126.0     to  127.0    
RIV   no.    7 value from time series:   104.00     for time:  126.0     to  127.0    
RIV   no.    8 value from time series:   104.00     for time:  126.0     to  127.0    
RIV   no.    9 value from time series:   113.50     for time:  126.0     to  127.0    
RIV   no.   10 value from time series:   113.50     for time:  126.0     to  127.0    
RIV   no.    1 value from time series:   101.00     for time:  126.0     to  127.0    
RIV   no.    2 value from time series:   101.00     for time:  126.0     to  127.0    
RIV   no.    3 value from time series:   111.50     for time:  126.0     to  127.0    
RIV   no.    4 value from time series:   111.50     for time:  126.0     to  127.0    
RIV   no.    5 value from time series:   115.10     for time:  126.0     to  127.0    
RIV   no.    6 value from time series:   115.10     for time:  126.0     to  127.0    
RIV   no.    7 value from time series:   104.00     for time:  126.0     to  127.0    
RIV   no.    8 value from time series:   104.00     for time:  126.0     to  127.0    
RIV   no.    9 value from time series:   113.50     for time:  126.0     to  127.0    
RIV   no.   10 value from time series:   113.50     for time:  126.0     to  127.0    

 OUTPUT CONTROL FOR STRESS PERIOD    6   TIME STEP    6
    SAVE BUDGET
    SAVE HEAD
    SAVE HEAD FOR ALL LAYERS
 UBDSV1 SAVING          STORAGE ON UNIT   1016 AT TIME STEP      6, STRESS PERIOD      6
 UBDSV1 SAVING FLOW RIGHT FACE  ON UNIT   1016 AT TIME STEP      6, STRESS PERIOD      6
 UBDSV1 SAVING FLOW FRONT FACE  ON UNIT   1016 AT TIME STEP      6, STRESS PERIOD      6
 UBDSV1 SAVING FLOW LOWER FACE  ON UNIT   1016 AT TIME STEP      6, STRESS PERIOD      6
 UBDSV4 SAVING WELLS NEAR RIVER ON UNIT   1016 AT TIME STEP      6, STRESS PERIOD      6
 UBDSV4 SAVING RIVER            ON UNIT   1016 AT TIME STEP      6, STRESS PERIOD      6

 RIVER              PERIOD  6   STEP  6
 BOUNDARY      1   LAYER   1   ROW     1   COL    15   RATE    -5013.71    
 BOUNDARY      2   LAYER   1   ROW     2   COL    15   RATE    -6140.55      RIV2
 BOUNDARY      3   LAYER   1   ROW     3   COL    15   RATE    -2405.61      RIV3
 BOUNDARY      4   LAYER   1   ROW     4   COL    15   RATE    -3870.59    
 BOUNDARY      5   LAYER   1   ROW     5   COL    15   RATE    -2506.83    
 BOUNDARY      6   LAYER   1   ROW     6   COL    15   RATE    -1853.58    
 BOUNDARY      7   LAYER   1   ROW     7   COL    15   RATE    -6340.20      RIVX
 BOUNDARY      8   LAYER   1   ROW     8   COL    15   RATE    -6190.71      RIVX
 BOUNDARY      9   LAYER   1   ROW     9   COL    15   RATE    -2400.18      RIVX
 BOUNDARY     10   LAYER   1   ROW    10   COL    15   RATE    -3307.67    

 GHB LAKES          PERIOD  6   STEP  6
 BOUNDARY      1   LAYER   1   ROW     3   COL     1   RATE    -14968.8    
 BOUNDARY      2   LAYER   1   ROW     7   COL     1   RATE    -2236.71      GHB2_UPPER
 BOUNDARY      3   LAYER   1   ROW     7   COL     1   RATE    -13376.9      GHB2_LOWER
 UBDSV4 SAVING RECHARGE         ON UNIT   1016 AT TIME STEP      6, STRESS PERIOD      6

 RECHARGE           PERIOD  6   STEP  6
 BOUNDARY      1   LAYER   1   ROW     1   COL     1   RATE     835.833    
 BOUNDARY      2   LAYER   1   ROW     1   COL     2   RATE     835.833    
 BOUNDARY      3   LAYER   1   ROW     1   COL     3   RATE     835.833    
 BOUNDARY      4   LAYER   1   ROW     1   COL     4   RATE     835.833    
 BOUNDARY      5   LAYER   1   ROW     1   COL     5   RATE     835.833    
 BOUNDARY      6   LAYER   1   ROW     1   COL     6   RATE     835.833    
 BOUNDARY      7   LAYER   1   ROW     1   COL     7   RATE     835.833    
 BOUNDARY      8   LAYER   1   ROW     1   COL     8   RATE     835.833    
 BOUNDARY      9   LAYER   1   ROW     1   COL     9   RATE     835.833    
 BOUNDARY     10   LAYER   1   ROW     1   COL    10   RATE     835.833    
 BOUNDARY     11   LAYER   1   ROW     1   COL    11   RATE     835.833    
 BOUNDARY     12   LAYER   1   ROW     1   COL    12   RATE     835.833    
 BOUNDARY     13   LAYER   1   ROW     1   COL    13   RATE     835.833    
 BOUNDARY     14   LAYER   1   ROW     1   COL    14   RATE     835.833    
 BOUNDARY     15   LAYER   1   ROW     1   COL    15   RATE     835.833    
 BOUNDARY     16   LAYER   1   ROW     2   COL     1   RATE     835.833    
 BOUNDARY     17   LAYER   1   ROW     2   COL     2   RATE     835.833    
 BOUNDARY     18   LAYER   1   ROW     2   COL     3   RATE     835.833    
 BOUNDARY     19   LAYER   1   ROW     2   COL     4   RATE     835.833    
 BOUNDARY     20   LAYER   1   ROW     2   COL     5   RATE     835.833    
 BOUNDARY     21   LAYER   1   ROW     2   COL     6   RATE     835.833    
 BOUNDARY     22   LAYER   1   ROW     2   COL     7   RATE     835.833    
 BOUNDARY     23   LAYER   1   ROW     2   COL     8   RATE     835.833    
 BOUNDARY     24   LAYER   1   ROW     2   COL     9   RATE     835.833    
 BOUNDARY     25   LAYER   1   ROW     2   COL    10   RATE     835.833    
 BOUNDARY     26   LAYER   1   ROW     2   COL    11   RATE     835.833    
 BOUNDARY     27   LAYER   1   ROW     2   COL    12   RATE     835.833    
 BOUNDARY     28   LAYER   1   ROW     2   COL    13   RATE     835.833    
 BOUNDARY     29   LAYER   1   ROW     2   COL    14   RATE     835.833    
 BOUNDARY     30   LAYER   1   ROW     2   COL    15   RATE     835.833    
 BOUNDARY     31   LAYER   1   ROW     3   COL     1   RATE     835.833    
 BOUNDARY     32   LAYER   1   ROW     3   COL     2   RATE     835.833    
 BOUNDARY     33   LAYER   1   ROW     3   COL     3   RATE     835.833    
 BOUNDARY     34   LAYER   1   ROW     3   COL     4   RATE     835.833    
 BOUNDARY     35   LAYER   1   ROW     3   COL     5   RATE     835.833    
 BOUNDARY     36   LAYER   1   ROW     3   COL     6   RATE     835.833    
 BOUNDARY     37   LAYER   1   ROW     3   COL     7   RATE     835.833    
 BOUNDARY     38   LAYER   1   ROW     3   COL     8   RATE     835.833    
 BOUNDARY     39   LAYER   1   ROW     3   COL     9   RATE     835.833    
 BOUNDARY     40   LAYER   1   ROW     3   COL    10   RATE     835.833    
 BOUNDARY     41   LAYER   1   ROW     3   COL    11   RATE     835.833    
 BOUNDARY     42   LAYER   1   ROW     3   COL    12   RATE     835.833    
 BOUNDARY     43   LAYER   1   ROW     3   COL    13   RATE     835.833    
 BOUNDARY     44   LAYER   1   ROW     3   COL    14   RATE     835.833    
 BOUNDARY     45   LAYER   1   ROW     3   COL    15   RATE     835.833    
 BOUNDARY     46   LAYER   1   ROW     4   COL     1   RATE     835.833    
 BOUNDARY     47   LAYER   1   ROW     4   COL     2   RATE     835.833    
 BOUNDARY     48   LAYER   1   ROW     4   COL     3   RATE     835.833    
 BOUNDARY     49   LAYER   1   ROW     4   COL     4   RATE     835.833    
 BOUNDARY     50   LAYER   1   ROW     4   COL     5   RATE     835.833    
 BOUNDARY     51   LAYER   1   ROW     4   COL     6   RATE     835.833    
 BOUNDARY     52   LAYER   1   ROW     4   COL     7   RATE     835.833    
 BOUNDARY     53   LAYER   1   ROW     4   COL     8   RATE     835.833    
 BOUNDARY     54   LAYER   1   ROW     4   COL     9   RATE     835.833    
 BOUNDARY     55   LAYER   1   ROW     4   COL    10   RATE     835.833    
 BOUNDARY     56   LAYER   1   ROW     4   COL    11   RATE     835.833    
 BOUNDARY     57   LAYER   1   ROW     4   COL    12   RATE     835.833    
 BOUNDARY     58   LAYER   1   ROW     4   COL    13   RATE     835.833    
 BOUNDARY     59   LAYER   1   ROW     4   COL    14   RATE     835.833    
 BOUNDARY     60   LAYER   1   ROW     4   COL    15   RATE     835.833    
 BOUNDARY     61   LAYER   1   ROW     5   COL     1   RATE     835.833    
 BOUNDARY     62   LAYER   1   ROW     5   COL     2   RATE     835.833    
 BOUNDARY     63   LAYER   1   ROW     5   COL     3   RATE     835.833    
 BOUNDARY     64   LAYER   1   ROW     5   COL     4   RATE     835.833    
 BOUNDARY     65   LAYER   1   ROW     5   COL     5   RATE     835.833    
 BOUNDARY     66   LAYER   1   ROW     5   COL     6   RATE     835.833    
 BOUNDARY     67   LAYER   1   ROW     5   COL     7   RATE     835.833    
 BOUNDARY     68   LAYER   1   ROW     5   COL     8   RATE     835.833    
 BOUNDARY     69   LAYER   1   ROW     5   COL     9   RATE     835.833    
 BOUNDARY     70   LAYER   1   ROW     5   COL    10   RATE     835.833    
 BOUNDARY     71   LAYER   1   ROW     5   COL    11   RATE     835.833    
 BOUNDARY     72   LAYER   1   ROW     5   COL    12   RATE     835.833    
 BOUNDARY     73   LAYER   1   ROW     5   COL    13   RATE     835.833    
 BOUNDARY     74   LAYER   1   ROW     5   COL    14   RATE     835.833    
 BOUNDARY     75   LAYER   1   ROW     5   COL    15   RATE     835.833    
 BOUNDARY     76   LAYER   1   ROW     6   COL     1   RATE     835.833    
 BOUNDARY     77   LAYER   1   ROW     6   COL     2   RATE     835.833    
 BOUNDARY     78   LAYER   1   ROW     6   COL     3   RATE     835.833    
 BOUNDARY     79   LAYER   1   ROW     6   COL     4   RATE     835.833    
 BOUNDARY     80   LAYER   1   ROW     6   COL     5   RATE     835.833    
 BOUNDARY     81   LAYER   1   ROW     6   COL     6   RATE     835.833    
 BOUNDARY     82   LAYER   1   ROW     6   COL     7   RATE     835.833    
 BOUNDARY     83   LAYER   1   ROW     6   COL     8   RATE     835.833    
 BOUNDARY     84   LAYER   1   ROW     6   COL     9   RATE     835.833    
 BOUNDARY     85   LAYER   1   ROW     6   COL    10   RATE     835.833    
 BOUNDARY     86   LAYER   1   ROW     6   COL    11   RATE     835.833    
 BOUNDARY     87   LAYER   1   ROW     6   COL    12   RATE     835.833    
 BOUNDARY     88   LAYER   1   ROW     6   COL    13   RATE     835.833    
 BOUNDARY     89   LAYER   1   ROW     6   COL    14   RATE     835.833    
 BOUNDARY     90   LAYER   1   ROW     6   COL    15   RATE     835.833    
 BOUNDARY     91   LAYER   1   ROW     7   COL     1   RATE     835.833    
 BOUNDARY     92   LAYER   1   ROW     7   COL     2   RATE     835.833    
 BOUNDARY     93   LAYER   1   ROW     7   COL     3   RATE     835.833    
 BOUNDARY     94   LAYER   1   ROW     7   COL     4   RATE     835.833    
 BOUNDARY     95   LAYER   1   ROW     7   COL     5   RATE     835.833    
 BOUNDARY     96   LAYER   1   ROW     7   COL     6   RATE     835.833    
 BOUNDARY     97   LAYER   1   ROW     7   COL     7   RATE     835.833    
 BOUNDARY     98   LAYER   1   ROW     7   COL     8   RATE     835.833    
 BOUNDARY     99   LAYER   1   ROW     7   COL     9   RATE     835.833    
 BOUNDARY    100   LAYER   1   ROW     7   COL    10   RATE     835.833    
 BOUNDARY    101   LAYER   1   ROW     7   COL    11   RATE     835.833    
 BOUNDARY    102   LAYER   1   ROW     7   COL    12   RATE     835.833    
 BOUNDARY    103   LAYER   1   ROW     7   COL    13   RATE     835.833    
 BOUNDARY    104   LAYER   1   ROW     7   COL    14   RATE     835.833    
 BOUNDARY    105   LAYER   1   ROW     7   COL    15   RATE     835.833    
 BOUNDARY    106   LAYER   1   ROW     8   COL     1   RATE     835.833    
 BOUNDARY    107   LAYER   1   ROW     8   COL     2   RATE     835.833    
 BOUNDARY    108   LAYER   1   ROW     8   COL     3   RATE     835.833    
 BOUNDARY    109   LAYER   1   ROW     8   COL     4   RATE     835.833    
 BOUNDARY    110   LAYER   1   ROW     8   COL     5   RATE     835.833    
 BOUNDARY    111   LAYER   1   ROW     8   COL     6   RATE     835.833    
 BOUNDARY    112   LAYER   1   ROW     8   COL     7   RATE     835.833    
 BOUNDARY    113   LAYER   1   ROW     8   COL     8   RATE     835.833    
 BOUNDARY    114   LAYER   1   ROW     8   COL     9   RATE     835.833    
 BOUNDARY    115   LAYER   1   ROW     8   COL    10   RATE     835.833    
 BOUNDARY    116   LAYER   1   ROW     8   COL    11   RATE     835.833    
 BOUNDARY    117   LAYER   1   ROW     8   COL    12   RATE     835.833    
 BOUNDARY    118   LAYER   1   ROW     8   COL    13   RATE     835.833    
 BOUNDARY    119   LAYER   1   ROW     8   COL    14   RATE     835.833    
 BOUNDARY    120   LAYER   1   ROW     8   COL    15   RATE     835.833    
 BOUNDARY    121   LAYER   1   ROW     9   COL     1   RATE     835.833    
 BOUNDARY    122   LAYER   1   ROW     9   COL     2   RATE     835.833    
 BOUNDARY    123   LAYER   1   ROW     9   COL     3   RATE     835.833    
 BOUNDARY    124   LAYER   1   ROW     9   COL     4   RATE     835.833    
 BOUNDARY    125   LAYER   1   ROW     9   COL     5   RATE     835.833    
 BOUNDARY    126   LAYER   1   ROW     9   COL     6   RATE     835.833    
 BOUNDARY    127   LAYER   1   ROW     9   COL     7   RATE     835.833    
 BOUNDARY    128   LAYER   1   ROW     9   COL     8   RATE     835.833    
 BOUNDARY    129   LAYER   1   ROW     9   COL     9   RATE     835.833    
 BOUNDARY    130   LAYER   1   ROW     9   COL    10   RATE     835.833    
 BOUNDARY    131   LAYER   1   ROW     9   COL    11   RATE     835.833    
 BOUNDARY    132   LAYER   1   ROW     9   COL    12   RATE     835.833    
 BOUNDARY    133   LAYER   1   ROW     9   COL    13   RATE     835.833    
 BOUNDARY    134   LAYER   1   ROW     9   COL    14   RATE     835.833    
 BOUNDARY    135   LAYER   1   ROW     9   COL    15   RATE     835.833    
 BOUNDARY    136   LAYER   1   ROW    10   COL     1   RATE     835.833    
 BOUNDARY    137   LAYER   1   ROW    10   COL     2   RATE     835.833    
 BOUNDARY    138   LAYER   1   ROW    10   COL     3   RATE     835.833    
 BOUNDARY    139   LAYER   1   ROW    10   COL     4   RATE     835.833    
 BOUNDARY    140   LAYER   1   ROW    10   COL     5   RATE     835.833    
 BOUNDARY    141   LAYER   1   ROW    10   COL     6   RATE     835.833    
 BOUNDARY    142   LAYER   1   ROW    10   COL     7   RATE     835.833    
 BOUNDARY    143   LAYER   1   ROW    10   COL     8   RATE     835.833    
 BOUNDARY    144   LAYER   1   ROW    10   COL     9   RATE     835.833    
 BOUNDARY    145   LAYER   1   ROW    10   COL    10   RATE     835.833    
 BOUNDARY    146   LAYER   1   ROW    10   COL    11   RATE     835.833    
 BOUNDARY    147   LAYER   1   ROW    10   COL    12   RATE     835.833    
 BOUNDARY    148   LAYER   1   ROW    10   COL    13   RATE     835.833    
 BOUNDARY    149   LAYER   1   ROW    10   COL    14   RATE     835.833    
 BOUNDARY    150   LAYER   1   ROW    10   COL    15   RATE     835.833    
 UBDSV4 SAVING ET SEGS          ON UNIT   1016 AT TIME STEP      6, STRESS PERIOD      6

 ET SEGS            PERIOD  6   STEP  6
 BOUNDARY      1   LAYER   1   ROW     1   COL     1   RATE    -3.54173    
 BOUNDARY      2   LAYER   1   ROW     1   COL     2   RATE    -11.3575    
 BOUNDARY      3   LAYER   1   ROW     1   COL     3   RATE    -73.4507    
 BOUNDARY      4   LAYER   1   ROW     1   COL     4   RATE   -100.0000    
 BOUNDARY      5   LAYER   1   ROW     1   COL     5   RATE   -100.0000    
 BOUNDARY      6   LAYER   1   ROW     1   COL     6   RATE   -100.0000    
 BOUNDARY      7   LAYER   1   ROW     1   COL     7   RATE   -100.0000    
 BOUNDARY      8   LAYER   1   ROW     1   COL     8   RATE   -100.0000    
 BOUNDARY      9   LAYER   1   ROW     1   COL     9   RATE   -100.0000    
 BOUNDARY     10   LAYER   1   ROW     1   COL    10   RATE   -100.0000    
 BOUNDARY     11   LAYER   1   ROW     1   COL    11   RATE   -100.0000    
 BOUNDARY     12   LAYER   1   ROW     1   COL    12   RATE    -21.6155    
 BOUNDARY     13   LAYER   1   ROW     1   COL    13   RATE   -0.547800    
 BOUNDARY     14   LAYER   1   ROW     1   COL    14   RATE     0.00000    
 BOUNDARY     15   LAYER   1   ROW     1   COL    15   RATE     0.00000    
 BOUNDARY     16   LAYER   1   ROW     2   COL     1   RATE     0.00000    
 BOUNDARY     17   LAYER   1   ROW     2   COL     2   RATE    -5.86115    
 BOUNDARY     18   LAYER   1   ROW     2   COL     3   RATE    -45.3414    
 BOUNDARY     19   LAYER   1   ROW     2   COL     4   RATE   -100.0000    
 BOUNDARY     20   LAYER   1   ROW     2   COL     5   RATE   -100.0000    
 BOUNDARY     21   LAYER   1   ROW     2   COL     6   RATE   -100.0000    
 BOUNDARY     22   LAYER   1   ROW     2   COL     7   RATE   -100.0000    
 BOUNDARY     23   LAYER   1   ROW     2   COL     8   RATE   -100.0000    
 BOUNDARY     24   LAYER   1   ROW     2   COL     9   RATE   -100.0000    
 BOUNDARY     25   LAYER   1   ROW     2   COL    10   RATE   -100.0000    
 BOUNDARY     26   LAYER   1   ROW     2   COL    11   RATE   -100.0000    
 BOUNDARY     27   LAYER   1   ROW     2   COL    12   RATE    -23.3591    
 BOUNDARY     28   LAYER   1   ROW     2   COL    13   RATE    -1.53372    
 BOUNDARY     29   LAYER   1   ROW     2   COL    14   RATE     0.00000    
 BOUNDARY     30   LAYER   1   ROW     2   COL    15   RATE     0.00000    
 BOUNDARY     31   LAYER   1   ROW     3   COL     1   RATE     0.00000    
 BOUNDARY     32   LAYER   1   ROW     3   COL     2   RATE     0.00000    
 BOUNDARY     33   LAYER   1   ROW     3   COL     3   RATE    -26.9418    
 BOUNDARY     34   LAYER   1   ROW     3   COL     4   RATE   -100.0000    
 BOUNDARY     35   LAYER   1   ROW     3   COL     5   RATE   -100.0000    
 BOUNDARY     36   LAYER   1   ROW     3   COL     6   RATE   -100.0000    
 BOUNDARY     37   LAYER   1   ROW     3   COL     7   RATE   -100.0000    
 BOUNDARY     38   LAYER   1   ROW     3   COL     8   RATE   -100.0000    
 BOUNDARY     39   LAYER   1   ROW     3   COL     9   RATE   -100.0000    
 BOUNDARY     40   LAYER   1   ROW     3   COL    10   RATE   -100.0000    
 BOUNDARY     41   LAYER   1   ROW     3   COL    11   RATE   -100.0000    
 BOUNDARY     42   LAYER   1   ROW     3   COL    12   RATE    -26.2956    
 BOUNDARY     43   LAYER   1   ROW     3   COL    13   RATE    -3.32847    
 BOUNDARY     44   LAYER   1   ROW     3   COL    14   RATE     0.00000    
 BOUNDARY     45   LAYER   1   ROW     3   COL    15   RATE     0.00000    
 BOUNDARY     46   LAYER   1   ROW     4   COL     1   RATE     0.00000    
 BOUNDARY     47   LAYER   1   ROW     4   COL     2   RATE    -4.34933    
 BOUNDARY     48   LAYER   1   ROW     4   COL     3   RATE    -34.4345    
 BOUNDARY     49   LAYER   1   ROW     4   COL     4   RATE   -100.0000    
 BOUNDARY     50   LAYER   1   ROW     4   COL     5   RATE   -100.0000    
 BOUNDARY     51   LAYER   1   ROW     4   COL     6   RATE   -100.0000    
 BOUNDARY     52   LAYER   1   ROW     4   COL     7   RATE   -100.0000    
 BOUNDARY     53   LAYER   1   ROW     4   COL     8   RATE   -100.0000    
 BOUNDARY     54   LAYER   1   ROW     4   COL     9   RATE   -100.0000    
 BOUNDARY     55   LAYER   1   ROW     4   COL    10   RATE   -100.0000    
 BOUNDARY     56   LAYER   1   ROW     4   COL    11   RATE   -100.0000    
 BOUNDARY     57   LAYER   1   ROW     4   COL    12   RATE    -29.0753    
 BOUNDARY     58   LAYER   1   ROW     4   COL    13   RATE    -4.77605    
 BOUNDARY     59   LAYER   1   ROW     4   COL    14   RATE     0.00000    
 BOUNDARY     60   LAYER   1   ROW     4   COL    15   RATE     0.00000    
 BOUNDARY     61   LAYER   1   ROW     5   COL     1   RATE     0.00000    
 BOUNDARY     62   LAYER   1   ROW     5   COL     2   RATE    -7.34149    
 BOUNDARY     63   LAYER   1   ROW     5   COL     3   RATE    -55.0842    
 BOUNDARY     64   LAYER   1   ROW     5   COL     4   RATE   -100.0000    
 BOUNDARY     65   LAYER   1   ROW     5   COL     5   RATE   -100.0000    
 BOUNDARY     66   LAYER   1   ROW     5   COL     6   RATE   -100.0000    
 BOUNDARY     67   LAYER   1   ROW     5   COL     7   RATE   -100.0000    
 BOUNDARY     68   LAYER   1   ROW     5   COL     8   RATE   -100.0000    
 BOUNDARY     69   LAYER   1   ROW     5   COL     9   RATE   -100.0000    
 BOUNDARY     70   LAYER   1   ROW     5   COL    10   RATE   -100.0000    
 BOUNDARY     71   LAYER   1   ROW     5   COL    11   RATE   -100.0000    
 BOUNDARY     72   LAYER   1   ROW     5   COL    12   RATE    -35.1090    
 BOUNDARY     73   LAYER   1   ROW     5   COL    13   RATE    -5.65313    
 BOUNDARY     74   LAYER   1   ROW     5   COL    14   RATE     0.00000    
 BOUNDARY     75   LAYER   1   ROW     5   COL    15   RATE     0.00000    
 BOUNDARY     76   LAYER   1   ROW     6   COL     1   RATE     0.00000    
 BOUNDARY     77   LAYER   1   ROW     6   COL     2   RATE    -5.87738    
 BOUNDARY     78   LAYER   1   ROW     6   COL     3   RATE    -58.7304    
 BOUNDARY     79   LAYER   1   ROW     6   COL     4   RATE   -100.0000    
 BOUNDARY     80   LAYER   1   ROW     6   COL     5   RATE   -100.0000    
 BOUNDARY     81   LAYER   1   ROW     6   COL     6   RATE   -100.0000    
 BOUNDARY     82   LAYER   1   ROW     6   COL     7   RATE   -100.0000    
 BOUNDARY     83   LAYER   1   ROW     6   COL     8   RATE   -100.0000    
 BOUNDARY     84   LAYER   1   ROW     6   COL     9   RATE   -100.0000    
 BOUNDARY     85   LAYER   1   ROW     6   COL    10   RATE   -100.0000    
 BOUNDARY     86   LAYER   1   ROW     6   COL    11   RATE   -100.0000    
 BOUNDARY     87   LAYER   1   ROW     6   COL    12   RATE    -38.4246    
 BOUNDARY     88   LAYER   1   ROW     6   COL    13   RATE    -5.60192    
 BOUNDARY     89   LAYER   1   ROW     6   COL    14   RATE     0.00000    
 BOUNDARY     90   LAYER   1   ROW     6   COL    15   RATE     0.00000    
 BOUNDARY     91   LAYER   1   ROW     7   COL     1   RATE     0.00000    
 BOUNDARY     92   LAYER   1   ROW     7   COL     2   RATE    -2.29067    
 BOUNDARY     93   LAYER   1   ROW     7   COL     3   RATE    -65.4027    
 BOUNDARY     94   LAYER   1   ROW     7   COL     4   RATE   -100.0000    
 BOUNDARY     95   LAYER   1   ROW     7   COL     5   RATE   -100.0000    
 BOUNDARY     96   LAYER   1   ROW     7   COL     6   RATE   -100.0000    
 BOUNDARY     97   LAYER   1   ROW     7   COL     7   RATE   -100.0000    
 BOUNDARY     98   LAYER   1   ROW     7   COL     8   RATE   -100.0000    
 BOUNDARY     99   LAYER   1   ROW     7   COL     9   RATE   -100.0000    
 BOUNDARY    100   LAYER   1   ROW     7   COL    10   RATE   -100.0000    
 BOUNDARY    101   LAYER   1   ROW     7   COL    11   RATE   -100.0000    
 BOUNDARY    102   LAYER   1   ROW     7   COL    12   RATE    -37.7065    
 BOUNDARY    103   LAYER   1   ROW     7   COL    13   RATE    -4.89028    
 BOUNDARY    104   LAYER   1   ROW     7   COL    14   RATE     0.00000    
 BOUNDARY    105   LAYER   1   ROW     7   COL    15   RATE     0.00000    
 BOUNDARY    106   LAYER   1   ROW     8   COL     1   RATE     0.00000    
 BOUNDARY    107   LAYER   1   ROW     8   COL     2   RATE    -15.8053    
 BOUNDARY    108   LAYER   1   ROW     8   COL     3   RATE   -100.0000    
 BOUNDARY    109   LAYER   1   ROW     8   COL     4   RATE   -100.0000    
 BOUNDARY    110   LAYER   1   ROW     8   COL     5   RATE   -100.0000    
 BOUNDARY    111   LAYER   1   ROW     8   COL     6   RATE   -100.0000    
 BOUNDARY    112   LAYER   1   ROW     8   COL     7   RATE   -100.0000    
 BOUNDARY    113   LAYER   1   ROW     8   COL     8   RATE   -100.0000    
 BOUNDARY    114   LAYER   1   ROW     8   COL     9   RATE   -100.0000    
 BOUNDARY    115   LAYER   1   ROW     8   COL    10   RATE   -100.0000    
 BOUNDARY    116   LAYER   1   ROW     8   COL    11   RATE   -100.0000    
 BOUNDARY    117   LAYER   1   ROW     8   COL    12   RATE    -39.9472    
 BOUNDARY    118   LAYER   1   ROW     8   COL    13   RATE    -4.93275    
 BOUNDARY    119   LAYER   1   ROW     8   COL    14   RATE     0.00000    
 BOUNDARY    120   LAYER   1   ROW     8   COL    15   RATE     0.00000    
 BOUNDARY    121   LAYER   1   ROW     9   COL     1   RATE    -23.4341    
 BOUNDARY    122   LAYER   1   ROW     9   COL     2   RATE    -84.8206    
 BOUNDARY    123   LAYER   1   ROW     9   COL     3   RATE   -100.0000    
 BOUNDARY    124   LAYER   1   ROW     9   COL     4   RATE   -100.0000    
 BOUNDARY    125   LAYER   1   ROW     9   COL     5   RATE   -100.0000    
 BOUNDARY    126   LAYER   1   ROW     9   COL     6   RATE   -100.0000    
 BOUNDARY    127   LAYER   1   ROW     9   COL     7   RATE   -100.0000    
 BOUNDARY    128   LAYER   1   ROW     9   COL     8   RATE   -100.0000    
 BOUNDARY    129   LAYER   1   ROW     9   COL     9   RATE   -100.0000    
 BOUNDARY    130   LAYER   1   ROW     9   COL    10   RATE   -100.0000    
 BOUNDARY    131   LAYER   1   ROW     9   COL    11   RATE   -100.0000    
 BOUNDARY    132   LAYER   1   ROW     9   COL    12   RATE    -45.8922    
 BOUNDARY    133   LAYER   1   ROW     9   COL    13   RATE    -5.80284    
 BOUNDARY    134   LAYER   1   ROW     9   COL    14   RATE     0.00000    
 BOUNDARY    135   LAYER   1   ROW     9   COL    15   RATE     0.00000    
 BOUNDARY    136   LAYER   1   ROW    10   COL     1   RATE    -92.9796    
 BOUNDARY    137   LAYER   1   ROW    10   COL     2   RATE   -100.0000    
 BOUNDARY    138   LAYER   1   ROW    10   COL     3   RATE   -100.0000    
 BOUNDARY    139   LAYER   1   ROW    10   COL     4   RATE   -100.0000    
 BOUNDARY    140   LAYER   1   ROW    10   COL     5   RATE   -100.0000    
 BOUNDARY    141   LAYER   1   ROW    10   COL     6   RATE   -100.0000    
 BOUNDARY    142   LAYER   1   ROW    10   COL     7   RATE   -100.0000    
 BOUNDARY    143   LAYER   1   ROW    10   COL     8   RATE   -100.0000    
 BOUNDARY    144   LAYER   1   ROW    10   COL     9   RATE   -100.0000    
 BOUNDARY    145   LAYER   1   ROW    10   COL    10   RATE   -100.0000    
 BOUNDARY    146   LAYER   1   ROW    10   COL    11   RATE   -100.0000    
 BOUNDARY    147   LAYER   1   ROW    10   COL    12   RATE    -50.1438    
 BOUNDARY    148   LAYER   1   ROW    10   COL    13   RATE    -6.35713    
 BOUNDARY    149   LAYER   1   ROW    10   COL    14   RATE     0.00000    
 BOUNDARY    150   LAYER   1   ROW    10   COL    15   RATE     0.00000    

 HEAD WILL BE SAVED ON UNIT 1017 AT END OF TIME STEP    6, STRESS PERIOD    6
RIV   no.    1 value from time series:   101.00     for time:  127.0     to  128.0    
RIV   no.    2 value from time series:   101.00     for time:  127.0     to  128.0    
RIV   no.    3 value from time series:   111.50     for time:  127.0     to  128.0    
RIV   no.    4 value from time series:   111.50     for time:  127.0     to  128.0    
RIV   no.    5 value from time series:   115.10     for time:  127.0     to  128.0    
RIV   no.    6 value from time series:   115.10     for time:  127.0     to  128.0    
RIV   no.    7 value from time series:   104.00     for time:  127.0     to  128.0    
RIV   no.    8 value from time series:   104.00     for time:  127.0     to  128.0    
RIV   no.    9 value from time series:   113.50     for time:  127.0     to  128.0    
RIV   no.   10 value from time series:   113.50     for time:  127.0     to  128.0    
RIV   no.    1 value from time series:   101.00     for time:  127.0     to  128.0    
RIV   no.    2 value from time series:   101.00     for time:  127.0     to  128.0    
RIV   no.    3 value from time series:   111.50     for time:  127.0     to  128.0    
RIV   no.    4 value from time series:   111.50     for time:  127.0     to  128.0    
RIV   no.    5 value from time series:   115.10     for time:  127.0     to  128.0    
RIV   no.    6 value from time series:   115.10     for time:  127.0     to  128.0    
RIV   no.    7 value from time series:   104.00     for time:  127.0     to  128.0    
RIV   no.    8 value from time series:   104.00     for time:  127.0     to  128.0    
RIV   no.    9 value from time series:   113.50     for time:  127.0     to  128.0    
RIV   no.   10 value from time series:   113.50     for time:  127.0     to  128.0    

 OUTPUT CONTROL FOR STRESS PERIOD    6   TIME STEP    7
    SAVE BUDGET
    SAVE HEAD
    SAVE HEAD FOR ALL LAYERS
 UBDSV1 SAVING          STORAGE ON UNIT   1016 AT TIME STEP      7, STRESS PERIOD      6
 UBDSV1 SAVING FLOW RIGHT FACE  ON UNIT   1016 AT TIME STEP      7, STRESS PERIOD      6
 UBDSV1 SAVING FLOW FRONT FACE  ON UNIT   1016 AT TIME STEP      7, STRESS PERIOD      6
 UBDSV1 SAVING FLOW LOWER FACE  ON UNIT   1016 AT TIME STEP      7, STRESS PERIOD      6
 UBDSV4 SAVING WELLS NEAR RIVER ON UNIT   1016 AT TIME STEP      7, STRESS PERIOD      6
 UBDSV4 SAVING RIVER            ON UNIT   1016 AT TIME STEP      7, STRESS PERIOD      6

 RIVER              PERIOD  6   STEP  7
 BOUNDARY      1   LAYER   1   ROW     1   COL    15   RATE    -5018.02    
 BOUNDARY      2   LAYER   1   ROW     2   COL    15   RATE    -6144.92      RIV2
 BOUNDARY      3   LAYER   1   ROW     3   COL    15   RATE    -2409.90      RIV3
 BOUNDARY      4   LAYER   1   ROW     4   COL    15   RATE    -3874.93    
 BOUNDARY      5   LAYER   1   ROW     5   COL    15   RATE    -2511.12    
 BOUNDARY      6   LAYER   1   ROW     6   COL    15   RATE    -1857.84    
 BOUNDARY      7   LAYER   1   ROW     7   COL    15   RATE    -6344.64      RIVX
 BOUNDARY      8   LAYER   1   ROW     8   COL    15   RATE    -6195.21      RIVX
 BOUNDARY      9   LAYER   1   ROW     9   COL    15   RATE    -2404.62      RIVX
 BOUNDARY     10   LAYER   1   ROW    10   COL    15   RATE    -3312.18    

 GHB LAKES          PERIOD  6   STEP  7
 BOUNDARY      1   LAYER   1   ROW     3   COL     1   RATE    -14977.0    
 BOUNDARY      2   LAYER   1   ROW     7   COL     1   RATE    -2243.15      GHB2_UPPER
 BOUNDARY      3   LAYER   1   ROW     7   COL     1   RATE    -13379.2      GHB2_LOWER
 UBDSV4 SAVING RECHARGE         ON UNIT   1016 AT TIME STEP      7, STRESS PERIOD      6

 RECHARGE           PERIOD  6   STEP  7
 BOUNDARY      1   LAYER   1   ROW     1   COL     1   RATE     837.500    
 BOUNDARY      2   LAYER   1   ROW     1   COL     2   RATE     837.500    
 BOUNDARY      3   LAYER   1   ROW     1   COL     3   RATE     837.500    
 BOUNDARY      4   LAYER   1   ROW     1   COL     4   RATE     837.500    
 BOUNDARY      5   LAYER   1   ROW     1   COL     5   RATE     837.500    
 BOUNDARY      6   LAYER   1   ROW     1   COL     6   RATE     837.500    
 BOUNDARY      7   LAYER   1   ROW     1   COL     7   RATE     837.500    
 BOUNDARY      8   LAYER   1   ROW     1   COL     8   RATE     837.500    
 BOUNDARY      9   LAYER   1   ROW     1   COL     9   RATE     837.500    
 BOUNDARY     10   LAYER   1   ROW     1   COL    10   RATE     837.500    
 BOUNDARY     11   LAYER   1   ROW     1   COL    11   RATE     837.500    
 BOUNDARY     12   LAYER   1   ROW     1   COL    12   RATE     837.500    
 BOUNDARY     13   LAYER   1   ROW     1   COL    13   RATE     837.500    
 BOUNDARY     14   LAYER   1   ROW     1   COL    14   RATE     837.500    
 BOUNDARY     15   LAYER   1   ROW     1   COL    15   RATE     837.500    
 BOUNDARY     16   LAYER   1   ROW     2   COL     1   RATE     837.500    
 BOUNDARY     17   LAYER   1   ROW     2   COL     2   RATE     837.500    
 BOUNDARY     18   LAYER   1   ROW     2   COL     3   RATE     837.500    
 BOUNDARY     19   LAYER   1   ROW     2   COL     4   RATE     837.500    
 BOUNDARY     20   LAYER   1   ROW     2   COL     5   RATE     837.500    
 BOUNDARY     21   LAYER   1   ROW     2   COL     6   RATE     837.500    
 BOUNDARY     22   LAYER   1   ROW     2   COL     7   RATE     837.500    
 BOUNDARY     23   LAYER   1   ROW     2   COL     8   RATE     837.500    
 BOUNDARY     24   LAYER   1   ROW     2   COL     9   RATE     837.500    
 BOUNDARY     25   LAYER   1   ROW     2   COL    10   RATE     837.500    
 BOUNDARY     26   LAYER   1   ROW     2   COL    11   RATE     837.500    
 BOUNDARY     27   LAYER   1   ROW     2   COL    12   RATE     837.500    
 BOUNDARY     28   LAYER   1   ROW     2   COL    13   RATE     837.500    
 BOUNDARY     29   LAYER   1   ROW     2   COL    14   RATE     837.500    
 BOUNDARY     30   LAYER   1   ROW     2   COL    15   RATE     837.500    
 BOUNDARY     31   LAYER   1   ROW     3   COL     1   RATE     837.500    
 BOUNDARY     32   LAYER   1   ROW     3   COL     2   RATE     837.500    
 BOUNDARY     33   LAYER   1   ROW     3   COL     3   RATE     837.500    
 BOUNDARY     34   LAYER   1   ROW     3   COL     4   RATE     837.500    
 BOUNDARY     35   LAYER   1   ROW     3   COL     5   RATE     837.500    
 BOUNDARY     36   LAYER   1   ROW     3   COL     6   RATE     837.500    
 BOUNDARY     37   LAYER   1   ROW     3   COL     7   RATE     837.500    
 BOUNDARY     38   LAYER   1   ROW     3   COL     8   RATE     837.500    
 BOUNDARY     39   LAYER   1   ROW     3   COL     9   RATE     837.500    
 BOUNDARY     40   LAYER   1   ROW     3   COL    10   RATE     837.500    
 BOUNDARY     41   LAYER   1   ROW     3   COL    11   RATE     837.500    
 BOUNDARY     42   LAYER   1   ROW     3   COL    12   RATE     837.500    
 BOUNDARY     43   LAYER   1   ROW     3   COL    13   RATE     837.500    
 BOUNDARY     44   LAYER   1   ROW     3   COL    14   RATE     837.500    
 BOUNDARY     45   LAYER   1   ROW     3   COL    15   RATE     837.500    
 BOUNDARY     46   LAYER   1   ROW     4   COL     1   RATE     837.500    
 BOUNDARY     47   LAYER   1   ROW     4   COL     2   RATE     837.500    
 BOUNDARY     48   LAYER   1   ROW     4   COL     3   RATE     837.500    
 BOUNDARY     49   LAYER   1   ROW     4   COL     4   RATE     837.500    
 BOUNDARY     50   LAYER   1   ROW     4   COL     5   RATE     837.500    
 BOUNDARY     51   LAYER   1   ROW     4   COL     6   RATE     837.500    
 BOUNDARY     52   LAYER   1   ROW     4   COL     7   RATE     837.500    
 BOUNDARY     53   LAYER   1   ROW     4   COL     8   RATE     837.500    
 BOUNDARY     54   LAYER   1   ROW     4   COL     9   RATE     837.500    
 BOUNDARY     55   LAYER   1   ROW     4   COL    10   RATE     837.500    
 BOUNDARY     56   LAYER   1   ROW     4   COL    11   RATE     837.500    
 BOUNDARY     57   LAYER   1   ROW     4   COL    12   RATE     837.500    
 BOUNDARY     58   LAYER   1   ROW     4   COL    13   RATE     837.500    
 BOUNDARY     59   LAYER   1   ROW     4   COL    14   RATE     837.500    
 BOUNDARY     60   LAYER   1   ROW     4   COL    15   RATE     837.500    
 BOUNDARY     61   LAYER   1   ROW     5   COL     1   RATE     837.500    
 BOUNDARY     62   LAYER   1   ROW     5   COL     2   RATE     837.500    
 BOUNDARY     63   LAYER   1   ROW     5   COL     3   RATE     837.500    
 BOUNDARY     64   LAYER   1   ROW     5   COL     4   RATE     837.500    
 BOUNDARY     65   LAYER   1   ROW     5   COL     5   RATE     837.500    
 BOUNDARY     66   LAYER   1   ROW     5   COL     6   RATE     837.500    
 BOUNDARY     67   LAYER   1   ROW     5   COL     7   RATE     837.500    
 BOUNDARY     68   LAYER   1   ROW     5   COL     8   RATE     837.500    
 BOUNDARY     69   LAYER   1   ROW     5   COL     9   RATE     837.500    
 BOUNDARY     70   LAYER   1   ROW     5   COL    10   RATE     837.500    
 BOUNDARY     71   LAYER   1   ROW     5   COL    11   RATE     837.500    
 BOUNDARY     72   LAYER   1   ROW     5   COL    12   RATE     837.500    
 BOUNDARY     73   LAYER   1   ROW     5   COL    13   RATE     837.500    
 BOUNDARY     74   LAYER   1   ROW     5   COL    14   RATE     837.500    
 BOUNDARY     75   LAYER   1   ROW     5   COL    15   RATE     837.500    
 BOUNDARY     76   LAYER   1   ROW     6   COL     1   RATE     837.500    
 BOUNDARY     77   LAYER   1   ROW     6   COL     2   RATE     837.500    
 BOUNDARY     78   LAYER   1   ROW     6   COL     3   RATE     837.500    
 BOUNDARY     79   LAYER   1   ROW     6   COL     4   RATE     837.500    
 BOUNDARY     80   LAYER   1   ROW     6   COL     5   RATE     837.500    
 BOUNDARY     81   LAYER   1   ROW     6   COL     6   RATE     837.500    
 BOUNDARY     82   LAYER   1   ROW     6   COL     7   RATE     837.500    
 BOUNDARY     83   LAYER   1   ROW     6   COL     8   RATE     837.500    
 BOUNDARY     84   LAYER   1   ROW     6   COL     9   RATE     837.500    
 BOUNDARY     85   LAYER   1   ROW     6   COL    10   RATE     837.500    
 BOUNDARY     86   LAYER   1   ROW     6   COL    11   RATE     837.500    
 BOUNDARY     87   LAYER   1   ROW     6   COL    12   RATE     837.500    
 BOUNDARY     88   LAYER   1   ROW     6   COL    13   RATE     837.500    
 BOUNDARY     89   LAYER   1   ROW     6   COL    14   RATE     837.500    
 BOUNDARY     90   LAYER   1   ROW     6   COL    15   RATE     837.500    
 BOUNDARY     91   LAYER   1   ROW     7   COL     1   RATE     837.500    
 BOUNDARY     92   LAYER   1   ROW     7   COL     2   RATE     837.500    
 BOUNDARY     93   LAYER   1   ROW     7   COL     3   RATE     837.500    
 BOUNDARY     94   LAYER   1   ROW     7   COL     4   RATE     837.500    
 BOUNDARY     95   LAYER   1   ROW     7   COL     5   RATE     837.500    
 BOUNDARY     96   LAYER   1   ROW     7   COL     6   RATE     837.500    
 BOUNDARY     97   LAYER   1   ROW     7   COL     7   RATE     837.500    
 BOUNDARY     98   LAYER   1   ROW     7   COL     8   RATE     837.500    
 BOUNDARY     99   LAYER   1   ROW     7   COL     9   RATE     837.500    
 BOUNDARY    100   LAYER   1   ROW     7   COL    10   RATE     837.500    
 BOUNDARY    101   LAYER   1   ROW     7   COL    11   RATE     837.500    
 BOUNDARY    102   LAYER   1   ROW     7   COL    12   RATE     837.500    
 BOUNDARY    103   LAYER   1   ROW     7   COL    13   RATE     837.500    
 BOUNDARY    104   LAYER   1   ROW     7   COL    14   RATE     837.500    
 BOUNDARY    105   LAYER   1   ROW     7   COL    15   RATE     837.500    
 BOUNDARY    106   LAYER   1   ROW     8   COL     1   RATE     837.500    
 BOUNDARY    107   LAYER   1   ROW     8   COL     2   RATE     837.500    
 BOUNDARY    108   LAYER   1   ROW     8   COL     3   RATE     837.500    
 BOUNDARY    109   LAYER   1   ROW     8   COL     4   RATE     837.500    
 BOUNDARY    110   LAYER   1   ROW     8   COL     5   RATE     837.500    
 BOUNDARY    111   LAYER   1   ROW     8   COL     6   RATE     837.500    
 BOUNDARY    112   LAYER   1   ROW     8   COL     7   RATE     837.500    
 BOUNDARY    113   LAYER   1   ROW     8   COL     8   RATE     837.500    
 BOUNDARY    114   LAYER   1   ROW     8   COL     9   RATE     837.500    
 BOUNDARY    115   LAYER   1   ROW     8   COL    10   RATE     837.500    
 BOUNDARY    116   LAYER   1   ROW     8   COL    11   RATE     837.500    
 BOUNDARY    117   LAYER   1   ROW     8   COL    12   RATE     837.500    
 BOUNDARY    118   LAYER   1   ROW     8   COL    13   RATE     837.500    
 BOUNDARY    119   LAYER   1   ROW     8   COL    14   RATE     837.500    
 BOUNDARY    120   LAYER   1   ROW     8   COL    15   RATE     837.500    
 BOUNDARY    121   LAYER   1   ROW     9   COL     1   RATE     837.500    
 BOUNDARY    122   LAYER   1   ROW     9   COL     2   RATE     837.500    
 BOUNDARY    123   LAYER   1   ROW     9   COL     3   RATE     837.500    
 BOUNDARY    124   LAYER   1   ROW     9   COL     4   RATE     837.500    
 BOUNDARY    125   LAYER   1   ROW     9   COL     5   RATE     837.500    
 BOUNDARY    126   LAYER   1   ROW     9   COL     6   RATE     837.500    
 BOUNDARY    127   LAYER   1   ROW     9   COL     7   RATE     837.500    
 BOUNDARY    128   LAYER   1   ROW     9   COL     8   RATE     837.500    
 BOUNDARY    129   LAYER   1   ROW     9   COL     9   RATE     837.500    
 BOUNDARY    130   LAYER   1   ROW     9   COL    10   RATE     837.500    
 BOUNDARY    131   LAYER   1   ROW     9   COL    11   RATE     837.500    
 BOUNDARY    132   LAYER   1   ROW     9   COL    12   RATE     837.500    
 BOUNDARY    133   LAYER   1   ROW     9   COL    13   RATE     837.500    
 BOUNDARY    134   LAYER   1   ROW     9   COL    14   RATE     837.500    
 BOUNDARY    135   LAYER   1   ROW     9   COL    15   RATE     837.500    
 BOUNDARY    136   LAYER   1   ROW    10   COL     1   RATE     837.500    
 BOUNDARY    137   LAYER   1   ROW    10   COL     2   RATE     837.500    
 BOUNDARY    138   LAYER   1   ROW    10   COL     3   RATE     837.500    
 BOUNDARY    139   LAYER   1   ROW    10   COL     4   RATE     837.500    
 BOUNDARY    140   LAYER   1   ROW    10   COL     5   RATE     837.500    
 BOUNDARY    141   LAYER   1   ROW    10   COL     6   RATE     837.500    
 BOUNDARY    142   LAYER   1   ROW    10   COL     7   RATE     837.500    
 BOUNDARY    143   LAYER   1   ROW    10   COL     8   RATE     837.500    
 BOUNDARY    144   LAYER   1   ROW    10   COL     9   RATE     837.500    
 BOUNDARY    145   LAYER   1   ROW    10   COL    10   RATE     837.500    
 BOUNDARY    146   LAYER   1   ROW    10   COL    11   RATE     837.500    
 BOUNDARY    147   LAYER   1   ROW    10   COL    12   RATE     837.500    
 BOUNDARY    148   LAYER   1   ROW    10   COL    13   RATE     837.500    
 BOUNDARY    149   LAYER   1   ROW    10   COL    14   RATE     837.500    
 BOUNDARY    150   LAYER   1   ROW    10   COL    15   RATE     837.500    
 UBDSV4 SAVING ET SEGS          ON UNIT   1016 AT TIME STEP      7, STRESS PERIOD      6

 ET SEGS            PERIOD  6   STEP  7
 BOUNDARY      1   LAYER   1   ROW     1   COL     1   RATE    -3.56668    
 BOUNDARY      2   LAYER   1   ROW     1   COL     2   RATE    -11.4420    
 BOUNDARY      3   LAYER   1   ROW     1   COL     3   RATE    -73.8928    
 BOUNDARY      4   LAYER   1   ROW     1   COL     4   RATE   -100.0000    
 BOUNDARY      5   LAYER   1   ROW     1   COL     5   RATE   -100.0000    
 BOUNDARY      6   LAYER   1   ROW     1   COL     6   RATE   -100.0000    
 BOUNDARY      7   LAYER   1   ROW     1   COL     7   RATE   -100.0000    
 BOUNDARY      8   LAYER   1   ROW     1   COL     8   RATE   -100.0000    
 BOUNDARY      9   LAYER   1   ROW     1   COL     9   RATE   -100.0000    
 BOUNDARY     10   LAYER   1   ROW     1   COL    10   RATE   -100.0000    
 BOUNDARY     11   LAYER   1   ROW     1   COL    11   RATE   -100.0000    
 BOUNDARY     12   LAYER   1   ROW     1   COL    12   RATE    -21.7019    
 BOUNDARY     13   LAYER   1   ROW     1   COL    13   RATE   -0.572657    
 BOUNDARY     14   LAYER   1   ROW     1   COL    14   RATE     0.00000    
 BOUNDARY     15   LAYER   1   ROW     1   COL    15   RATE     0.00000    
 BOUNDARY     16   LAYER   1   ROW     2   COL     1   RATE     0.00000    
 BOUNDARY     17   LAYER   1   ROW     2   COL     2   RATE    -5.88583    
 BOUNDARY     18   LAYER   1   ROW     2   COL     3   RATE    -45.7826    
 BOUNDARY     19   LAYER   1   ROW     2   COL     4   RATE   -100.0000    
 BOUNDARY     20   LAYER   1   ROW     2   COL     5   RATE   -100.0000    
 BOUNDARY     21   LAYER   1   ROW     2   COL     6   RATE   -100.0000    
 BOUNDARY     22   LAYER   1   ROW     2   COL     7   RATE   -100.0000    
 BOUNDARY     23   LAYER   1   ROW     2   COL     8   RATE   -100.0000    
 BOUNDARY     24   LAYER   1   ROW     2   COL     9   RATE   -100.0000    
 BOUNDARY     25   LAYER   1   ROW     2   COL    10   RATE   -100.0000    
 BOUNDARY     26   LAYER   1   ROW     2   COL    11   RATE   -100.0000    
 BOUNDARY     27   LAYER   1   ROW     2   COL    12   RATE    -23.4455    
 BOUNDARY     28   LAYER   1   ROW     2   COL    13   RATE    -1.55860    
 BOUNDARY     29   LAYER   1   ROW     2   COL    14   RATE     0.00000    
 BOUNDARY     30   LAYER   1   ROW     2   COL    15   RATE     0.00000    
 BOUNDARY     31   LAYER   1   ROW     3   COL     1   RATE     0.00000    
 BOUNDARY     32   LAYER   1   ROW     3   COL     2   RATE     0.00000    
 BOUNDARY     33   LAYER   1   ROW     3   COL     3   RATE    -27.0260    
 BOUNDARY     34   LAYER   1   ROW     3   COL     4   RATE   -100.0000    
 BOUNDARY     35   LAYER   1   ROW     3   COL     5   RATE   -100.0000    
 BOUNDARY     36   LAYER   1   ROW     3   COL     6   RATE   -100.0000    
 BOUNDARY     37   LAYER   1   ROW     3   COL     7   RATE   -100.0000    
 BOUNDARY     38   LAYER   1   ROW     3   COL     8   RATE   -100.0000    
 BOUNDARY     39   LAYER   1   ROW     3   COL     9   RATE   -100.0000    
 BOUNDARY     40   LAYER   1   ROW     3   COL    10   RATE   -100.0000    
 BOUNDARY     41   LAYER   1   ROW     3   COL    11   RATE   -100.0000    
 BOUNDARY     42   LAYER   1   ROW     3   COL    12   RATE    -26.3820    
 BOUNDARY     43   LAYER   1   ROW     3   COL    13   RATE    -3.35333    
 BOUNDARY     44   LAYER   1   ROW     3   COL    14   RATE     0.00000    
 BOUNDARY     45   LAYER   1   ROW     3   COL    15   RATE     0.00000    
 BOUNDARY     46   LAYER   1   ROW     4   COL     1   RATE     0.00000    
 BOUNDARY     47   LAYER   1   ROW     4   COL     2   RATE    -4.37385    
 BOUNDARY     48   LAYER   1   ROW     4   COL     3   RATE    -34.8756    
 BOUNDARY     49   LAYER   1   ROW     4   COL     4   RATE   -100.0000    
 BOUNDARY     50   LAYER   1   ROW     4   COL     5   RATE   -100.0000    
 BOUNDARY     51   LAYER   1   ROW     4   COL     6   RATE   -100.0000    
 BOUNDARY     52   LAYER   1   ROW     4   COL     7   RATE   -100.0000    
 BOUNDARY     53   LAYER   1   ROW     4   COL     8   RATE   -100.0000    
 BOUNDARY     54   LAYER   1   ROW     4   COL     9   RATE   -100.0000    
 BOUNDARY     55   LAYER   1   ROW     4   COL    10   RATE   -100.0000    
 BOUNDARY     56   LAYER   1   ROW     4   COL    11   RATE   -100.0000    
 BOUNDARY     57   LAYER   1   ROW     4   COL    12   RATE    -29.1614    
 BOUNDARY     58   LAYER   1   ROW     4   COL    13   RATE    -4.80082    
 BOUNDARY     59   LAYER   1   ROW     4   COL    14   RATE     0.00000    
 BOUNDARY     60   LAYER   1   ROW     4   COL    15   RATE     0.00000    
 BOUNDARY     61   LAYER   1   ROW     5   COL     1   RATE     0.00000    
 BOUNDARY     62   LAYER   1   ROW     5   COL     2   RATE    -7.36639    
 BOUNDARY     63   LAYER   1   ROW     5   COL     3   RATE    -55.5215    
 BOUNDARY     64   LAYER   1   ROW     5   COL     4   RATE   -100.0000    
 BOUNDARY     65   LAYER   1   ROW     5   COL     5   RATE   -100.0000    
 BOUNDARY     66   LAYER   1   ROW     5   COL     6   RATE   -100.0000    
 BOUNDARY     67   LAYER   1   ROW     5   COL     7   RATE   -100.0000    
 BOUNDARY     68   LAYER   1   ROW     5   COL     8   RATE   -100.0000    
 BOUNDARY     69   LAYER   1   ROW     5   COL     9   RATE   -100.0000    
 BOUNDARY     70   LAYER   1   ROW     5   COL    10   RATE   -100.0000    
 BOUNDARY     71   LAYER   1   ROW     5   COL    11   RATE   -100.0000    
 BOUNDARY     72   LAYER   1   ROW     5   COL    12   RATE    -35.5552    
 BOUNDARY     73   LAYER   1   ROW     5   COL    13   RATE    -5.67772    
 BOUNDARY     74   LAYER   1   ROW     5   COL    14   RATE     0.00000    
 BOUNDARY     75   LAYER   1   ROW     5   COL    15   RATE     0.00000    
 BOUNDARY     76   LAYER   1   ROW     6   COL     1   RATE     0.00000    
 BOUNDARY     77   LAYER   1   ROW     6   COL     2   RATE    -5.90149    
 BOUNDARY     78   LAYER   1   ROW     6   COL     3   RATE    -59.1622    
 BOUNDARY     79   LAYER   1   ROW     6   COL     4   RATE   -100.0000    
 BOUNDARY     80   LAYER   1   ROW     6   COL     5   RATE   -100.0000    
 BOUNDARY     81   LAYER   1   ROW     6   COL     6   RATE   -100.0000    
 BOUNDARY     82   LAYER   1   ROW     6   COL     7   RATE   -100.0000    
 BOUNDARY     83   LAYER   1   ROW     6   COL     8   RATE   -100.0000    
 BOUNDARY     84   LAYER   1   ROW     6   COL     9   RATE   -100.0000    
 BOUNDARY     85   LAYER   1   ROW     6   COL    10   RATE   -100.0000    
 BOUNDARY     86   LAYER   1   ROW     6   COL    11   RATE   -100.0000    
 BOUNDARY     87   LAYER   1   ROW     6   COL    12   RATE    -38.8685    
 BOUNDARY     88   LAYER   1   ROW     6   COL    13   RATE    -5.62645    
 BOUNDARY     89   LAYER   1   ROW     6   COL    14   RATE     0.00000    
 BOUNDARY     90   LAYER   1   ROW     6   COL    15   RATE     0.00000    
 BOUNDARY     91   LAYER   1   ROW     7   COL     1   RATE     0.00000    
 BOUNDARY     92   LAYER   1   ROW     7   COL     2   RATE    -2.31295    
 BOUNDARY     93   LAYER   1   ROW     7   COL     3   RATE    -65.8299    
 BOUNDARY     94   LAYER   1   ROW     7   COL     4   RATE   -100.0000    
 BOUNDARY     95   LAYER   1   ROW     7   COL     5   RATE   -100.0000    
 BOUNDARY     96   LAYER   1   ROW     7   COL     6   RATE   -100.0000    
 BOUNDARY     97   LAYER   1   ROW     7   COL     7   RATE   -100.0000    
 BOUNDARY     98   LAYER   1   ROW     7   COL     8   RATE   -100.0000    
 BOUNDARY     99   LAYER   1   ROW     7   COL     9   RATE   -100.0000    
 BOUNDARY    100   LAYER   1   ROW     7   COL    10   RATE   -100.0000    
 BOUNDARY    101   LAYER   1   ROW     7   COL    11   RATE   -100.0000    
 BOUNDARY    102   LAYER   1   ROW     7   COL    12   RATE    -38.1514    
 BOUNDARY    103   LAYER   1   ROW     7   COL    13   RATE    -4.91499    
 BOUNDARY    104   LAYER   1   ROW     7   COL    14   RATE     0.00000    
 BOUNDARY    105   LAYER   1   ROW     7   COL    15   RATE     0.00000    
 BOUNDARY    106   LAYER   1   ROW     8   COL     1   RATE     0.00000    
 BOUNDARY    107   LAYER   1   ROW     8   COL     2   RATE    -15.8857    
 BOUNDARY    108   LAYER   1   ROW     8   COL     3   RATE   -100.0000    
 BOUNDARY    109   LAYER   1   ROW     8   COL     4   RATE   -100.0000    
 BOUNDARY    110   LAYER   1   ROW     8   COL     5   RATE   -100.0000    
 BOUNDARY    111   LAYER   1   ROW     8   COL     6   RATE   -100.0000    
 BOUNDARY    112   LAYER   1   ROW     8   COL     7   RATE   -100.0000    
 BOUNDARY    113   LAYER   1   ROW     8   COL     8   RATE   -100.0000    
 BOUNDARY    114   LAYER   1   ROW     8   COL     9   RATE   -100.0000    
 BOUNDARY    115   LAYER   1   ROW     8   COL    10   RATE   -100.0000    
 BOUNDARY    116   LAYER   1   ROW     8   COL    11   RATE   -100.0000    
 BOUNDARY    117   LAYER   1   ROW     8   COL    12   RATE    -40.3936    
 BOUNDARY    118   LAYER   1   ROW     8   COL    13   RATE    -4.95774    
 BOUNDARY    119   LAYER   1   ROW     8   COL    14   RATE     0.00000    
 BOUNDARY    120   LAYER   1   ROW     8   COL    15   RATE     0.00000    
 BOUNDARY    121   LAYER   1   ROW     9   COL     1   RATE    -23.5155    
 BOUNDARY    122   LAYER   1   ROW     9   COL     2   RATE    -85.2541    
 BOUNDARY    123   LAYER   1   ROW     9   COL     3   RATE   -100.0000    
 BOUNDARY    124   LAYER   1   ROW     9   COL     4   RATE   -100.0000    
 BOUNDARY    125   LAYER   1   ROW     9   COL     5   RATE   -100.0000    
 BOUNDARY    126   LAYER   1   ROW     9   COL     6   RATE   -100.0000    
 BOUNDARY    127   LAYER   1   ROW     9   COL     7   RATE   -100.0000    
 BOUNDARY    128   LAYER   1   ROW     9   COL     8   RATE   -100.0000    
 BOUNDARY    129   LAYER   1   ROW     9   COL     9   RATE   -100.0000    
 BOUNDARY    130   LAYER   1   ROW     9   COL    10   RATE   -100.0000    
 BOUNDARY    131   LAYER   1   ROW     9   COL    11   RATE   -100.0000    
 BOUNDARY    132   LAYER   1   ROW     9   COL    12   RATE    -46.3398    
 BOUNDARY    133   LAYER   1   ROW     9   COL    13   RATE    -5.82808    
 BOUNDARY    134   LAYER   1   ROW     9   COL    14   RATE     0.00000    
 BOUNDARY    135   LAYER   1   ROW     9   COL    15   RATE     0.00000    
 BOUNDARY    136   LAYER   1   ROW    10   COL     1   RATE    -93.4119    
 BOUNDARY    137   LAYER   1   ROW    10   COL     2   RATE   -100.0000    
 BOUNDARY    138   LAYER   1   ROW    10   COL     3   RATE   -100.0000    
 BOUNDARY    139   LAYER   1   ROW    10   COL     4   RATE   -100.0000    
 BOUNDARY    140   LAYER   1   ROW    10   COL     5   RATE   -100.0000    
 BOUNDARY    141   LAYER   1   ROW    10   COL     6   RATE   -100.0000    
 BOUNDARY    142   LAYER   1   ROW    10   COL     7   RATE   -100.0000    
 BOUNDARY    143   LAYER   1   ROW    10   COL     8   RATE   -100.0000    
 BOUNDARY    144   LAYER   1   ROW    10   COL     9   RATE   -100.0000    
 BOUNDARY    145   LAYER   1   ROW    10   COL    10   RATE   -100.0000    
 BOUNDARY    146   LAYER   1   ROW    10   COL    11   RATE   -100.0000    
 BOUNDARY    147   LAYER   1   ROW    10   COL    12   RATE    -50.5924    
 BOUNDARY    148   LAYER   1   ROW    10   COL    13   RATE    -6.38254    
 BOUNDARY    149   LAYER   1   ROW    10   COL    14   RATE     0.00000    
 BOUNDARY    150   LAYER   1   ROW    10   COL    15   RATE     0.00000    

 HEAD WILL BE SAVED ON UNIT 1017 AT END OF TIME STEP    7, STRESS PERIOD    6
RIV   no.    1 value from time series:   101.00     for time:  128.0     to  129.0    
RIV   no.    2 value from time series:   101.00     for time:  128.0     to  129.0    
RIV   no.    3 value from time series:   111.50     for time:  128.0     to  129.0    
RIV   no.    4 value from time series:   111.50     for time:  128.0     to  129.0    
RIV   no.    5 value from time series:   115.10     for time:  128.0     to  129.0    
RIV   no.    6 value from time series:   115.10     for time:  128.0     to  129.0    
RIV   no.    7 value from time series:   104.00     for time:  128.0     to  129.0    
RIV   no.    8 value from time series:   104.00     for time:  128.0     to  129.0    
RIV   no.    9 value from time series:   113.50     for time:  128.0     to  129.0    
RIV   no.   10 value from time series:   113.50     for time:  128.0     to  129.0    
RIV   no.    1 value from time series:   101.00     for time:  128.0     to  129.0    
RIV   no.    2 value from time series:   101.00     for time:  128.0     to  129.0    
RIV   no.    3 value from time series:   111.50     for time:  128.0     to  129.0    
RIV   no.    4 value from time series:   111.50     for time:  128.0     to  129.0    
RIV   no.    5 value from time series:   115.10     for time:  128.0     to  129.0    
RIV   no.    6 value from time series:   115.10     for time:  128.0     to  129.0    
RIV   no.    7 value from time series:   104.00     for time:  128.0     to  129.0    
RIV   no.    8 value from time series:   104.00     for time:  128.0     to  129.0    
RIV   no.    9 value from time series:   113.50     for time:  128.0     to  129.0    
RIV   no.   10 value from time series:   113.50     for time:  128.0     to  129.0    

 OUTPUT CONTROL FOR STRESS PERIOD    6   TIME STEP    8
    SAVE BUDGET
    SAVE HEAD
    SAVE HEAD FOR ALL LAYERS
 UBDSV1 SAVING          STORAGE ON UNIT   1016 AT TIME STEP      8, STRESS PERIOD      6
 UBDSV1 SAVING FLOW RIGHT FACE  ON UNIT   1016 AT TIME STEP      8, STRESS PERIOD      6
 UBDSV1 SAVING FLOW FRONT FACE  ON UNIT   1016 AT TIME STEP      8, STRESS PERIOD      6
 UBDSV1 SAVING FLOW LOWER FACE  ON UNIT   1016 AT TIME STEP      8, STRESS PERIOD      6
 UBDSV4 SAVING WELLS NEAR RIVER ON UNIT   1016 AT TIME STEP      8, STRESS PERIOD      6
 UBDSV4 SAVING RIVER            ON UNIT   1016 AT TIME STEP      8, STRESS PERIOD      6

 RIVER              PERIOD  6   STEP  8
 BOUNDARY      1   LAYER   1   ROW     1   COL    15   RATE    -5022.31    
 BOUNDARY      2   LAYER   1   ROW     2   COL    15   RATE    -6149.28      RIV2
 BOUNDARY      3   LAYER   1   ROW     3   COL    15   RATE    -2414.17      RIV3
 BOUNDARY      4   LAYER   1   ROW     4   COL    15   RATE    -3879.25    
 BOUNDARY      5   LAYER   1   ROW     5   COL    15   RATE    -2515.39    
 BOUNDARY      6   LAYER   1   ROW     6   COL    15   RATE    -1862.08    
 BOUNDARY      7   LAYER   1   ROW     7   COL    15   RATE    -6349.05      RIVX
 BOUNDARY      8   LAYER   1   ROW     8   COL    15   RATE    -6199.68      RIVX
 BOUNDARY      9   LAYER   1   ROW     9   COL    15   RATE    -2409.04      RIVX
 BOUNDARY     10   LAYER   1   ROW    10   COL    15   RATE    -3316.67    

 GHB LAKES          PERIOD  6   STEP  8
 BOUNDARY      1   LAYER   1   ROW     3   COL     1   RATE    -14985.3    
 BOUNDARY      2   LAYER   1   ROW     7   COL     1   RATE    -2249.59      GHB2_UPPER
 BOUNDARY      3   LAYER   1   ROW     7   COL     1   RATE    -13381.5      GHB2_LOWER
 UBDSV4 SAVING RECHARGE         ON UNIT   1016 AT TIME STEP      8, STRESS PERIOD      6

 RECHARGE           PERIOD  6   STEP  8
 BOUNDARY      1   LAYER   1   ROW     1   COL     1   RATE     839.167    
 BOUNDARY      2   LAYER   1   ROW     1   COL     2   RATE     839.167    
 BOUNDARY      3   LAYER   1   ROW     1   COL     3   RATE     839.167    
 BOUNDARY      4   LAYER   1   ROW     1   COL     4   RATE     839.167    
 BOUNDARY      5   LAYER   1   ROW     1   COL     5   RATE     839.167    
 BOUNDARY      6   LAYER   1   ROW     1   COL     6   RATE     839.167    
 BOUNDARY      7   LAYER   1   ROW     1   COL     7   RATE     839.167    
 BOUNDARY      8   LAYER   1   ROW     1   COL     8   RATE     839.167    
 BOUNDARY      9   LAYER   1   ROW     1   COL     9   RATE     839.167    
 BOUNDARY     10   LAYER   1   ROW     1   COL    10   RATE     839.167    
 BOUNDARY     11   LAYER   1   ROW     1   COL    11   RATE     839.167    
 BOUNDARY     12   LAYER   1   ROW     1   COL    12   RATE     839.167    
 BOUNDARY     13   LAYER   1   ROW     1   COL    13   RATE     839.167    
 BOUNDARY     14   LAYER   1   ROW     1   COL    14   RATE     839.167    
 BOUNDARY     15   LAYER   1   ROW     1   COL    15   RATE     839.167    
 BOUNDARY     16   LAYER   1   ROW     2   COL     1   RATE     839.167    
 BOUNDARY     17   LAYER   1   ROW     2   COL     2   RATE     839.167    
 BOUNDARY     18   LAYER   1   ROW     2   COL     3   RATE     839.167    
 BOUNDARY     19   LAYER   1   ROW     2   COL     4   RATE     839.167    
 BOUNDARY     20   LAYER   1   ROW     2   COL     5   RATE     839.167    
 BOUNDARY     21   LAYER   1   ROW     2   COL     6   RATE     839.167    
 BOUNDARY     22   LAYER   1   ROW     2   COL     7   RATE     839.167    
 BOUNDARY     23   LAYER   1   ROW     2   COL     8   RATE     839.167    
 BOUNDARY     24   LAYER   1   ROW     2   COL     9   RATE     839.167    
 BOUNDARY     25   LAYER   1   ROW     2   COL    10   RATE     839.167    
 BOUNDARY     26   LAYER   1   ROW     2   COL    11   RATE     839.167    
 BOUNDARY     27   LAYER   1   ROW     2   COL    12   RATE     839.167    
 BOUNDARY     28   LAYER   1   ROW     2   COL    13   RATE     839.167    
 BOUNDARY     29   LAYER   1   ROW     2   COL    14   RATE     839.167    
 BOUNDARY     30   LAYER   1   ROW     2   COL    15   RATE     839.167    
 BOUNDARY     31   LAYER   1   ROW     3   COL     1   RATE     839.167    
 BOUNDARY     32   LAYER   1   ROW     3   COL     2   RATE     839.167    
 BOUNDARY     33   LAYER   1   ROW     3   COL     3   RATE     839.167    
 BOUNDARY     34   LAYER   1   ROW     3   COL     4   RATE     839.167    
 BOUNDARY     35   LAYER   1   ROW     3   COL     5   RATE     839.167    
 BOUNDARY     36   LAYER   1   ROW     3   COL     6   RATE     839.167    
 BOUNDARY     37   LAYER   1   ROW     3   COL     7   RATE     839.167    
 BOUNDARY     38   LAYER   1   ROW     3   COL     8   RATE     839.167    
 BOUNDARY     39   LAYER   1   ROW     3   COL     9   RATE     839.167    
 BOUNDARY     40   LAYER   1   ROW     3   COL    10   RATE     839.167    
 BOUNDARY     41   LAYER   1   ROW     3   COL    11   RATE     839.167    
 BOUNDARY     42   LAYER   1   ROW     3   COL    12   RATE     839.167    
 BOUNDARY     43   LAYER   1   ROW     3   COL    13   RATE     839.167    
 BOUNDARY     44   LAYER   1   ROW     3   COL    14   RATE     839.167    
 BOUNDARY     45   LAYER   1   ROW     3   COL    15   RATE     839.167    
 BOUNDARY     46   LAYER   1   ROW     4   COL     1   RATE     839.167    
 BOUNDARY     47   LAYER   1   ROW     4   COL     2   RATE     839.167    
 BOUNDARY     48   LAYER   1   ROW     4   COL     3   RATE     839.167    
 BOUNDARY     49   LAYER   1   ROW     4   COL     4   RATE     839.167    
 BOUNDARY     50   LAYER   1   ROW     4   COL     5   RATE     839.167    
 BOUNDARY     51   LAYER   1   ROW     4   COL     6   RATE     839.167    
 BOUNDARY     52   LAYER   1   ROW     4   COL     7   RATE     839.167    
 BOUNDARY     53   LAYER   1   ROW     4   COL     8   RATE     839.167    
 BOUNDARY     54   LAYER   1   ROW     4   COL     9   RATE     839.167    
 BOUNDARY     55   LAYER   1   ROW     4   COL    10   RATE     839.167    
 BOUNDARY     56   LAYER   1   ROW     4   COL    11   RATE     839.167    
 BOUNDARY     57   LAYER   1   ROW     4   COL    12   RATE     839.167    
 BOUNDARY     58   LAYER   1   ROW     4   COL    13   RATE     839.167    
 BOUNDARY     59   LAYER   1   ROW     4   COL    14   RATE     839.167    
 BOUNDARY     60   LAYER   1   ROW     4   COL    15   RATE     839.167    
 BOUNDARY     61   LAYER   1   ROW     5   COL     1   RATE     839.167    
 BOUNDARY     62   LAYER   1   ROW     5   COL     2   RATE     839.167    
 BOUNDARY     63   LAYER   1   ROW     5   COL     3   RATE     839.167    
 BOUNDARY     64   LAYER   1   ROW     5   COL     4   RATE     839.167    
 BOUNDARY     65   LAYER   1   ROW     5   COL     5   RATE     839.167    
 BOUNDARY     66   LAYER   1   ROW     5   COL     6   RATE     839.167    
 BOUNDARY     67   LAYER   1   ROW     5   COL     7   RATE     839.167    
 BOUNDARY     68   LAYER   1   ROW     5   COL     8   RATE     839.167    
 BOUNDARY     69   LAYER   1   ROW     5   COL     9   RATE     839.167    
 BOUNDARY     70   LAYER   1   ROW     5   COL    10   RATE     839.167    
 BOUNDARY     71   LAYER   1   ROW     5   COL    11   RATE     839.167    
 BOUNDARY     72   LAYER   1   ROW     5   COL    12   RATE     839.167    
 BOUNDARY     73   LAYER   1   ROW     5   COL    13   RATE     839.167    
 BOUNDARY     74   LAYER   1   ROW     5   COL    14   RATE     839.167    
 BOUNDARY     75   LAYER   1   ROW     5   COL    15   RATE     839.167    
 BOUNDARY     76   LAYER   1   ROW     6   COL     1   RATE     839.167    
 BOUNDARY     77   LAYER   1   ROW     6   COL     2   RATE     839.167    
 BOUNDARY     78   LAYER   1   ROW     6   COL     3   RATE     839.167    
 BOUNDARY     79   LAYER   1   ROW     6   COL     4   RATE     839.167    
 BOUNDARY     80   LAYER   1   ROW     6   COL     5   RATE     839.167    
 BOUNDARY     81   LAYER   1   ROW     6   COL     6   RATE     839.167    
 BOUNDARY     82   LAYER   1   ROW     6   COL     7   RATE     839.167    
 BOUNDARY     83   LAYER   1   ROW     6   COL     8   RATE     839.167    
 BOUNDARY     84   LAYER   1   ROW     6   COL     9   RATE     839.167    
 BOUNDARY     85   LAYER   1   ROW     6   COL    10   RATE     839.167    
 BOUNDARY     86   LAYER   1   ROW     6   COL    11   RATE     839.167    
 BOUNDARY     87   LAYER   1   ROW     6   COL    12   RATE     839.167    
 BOUNDARY     88   LAYER   1   ROW     6   COL    13   RATE     839.167    
 BOUNDARY     89   LAYER   1   ROW     6   COL    14   RATE     839.167    
 BOUNDARY     90   LAYER   1   ROW     6   COL    15   RATE     839.167    
 BOUNDARY     91   LAYER   1   ROW     7   COL     1   RATE     839.167    
 BOUNDARY     92   LAYER   1   ROW     7   COL     2   RATE     839.167    
 BOUNDARY     93   LAYER   1   ROW     7   COL     3   RATE     839.167    
 BOUNDARY     94   LAYER   1   ROW     7   COL     4   RATE     839.167    
 BOUNDARY     95   LAYER   1   ROW     7   COL     5   RATE     839.167    
 BOUNDARY     96   LAYER   1   ROW     7   COL     6   RATE     839.167    
 BOUNDARY     97   LAYER   1   ROW     7   COL     7   RATE     839.167    
 BOUNDARY     98   LAYER   1   ROW     7   COL     8   RATE     839.167    
 BOUNDARY     99   LAYER   1   ROW     7   COL     9   RATE     839.167    
 BOUNDARY    100   LAYER   1   ROW     7   COL    10   RATE     839.167    
 BOUNDARY    101   LAYER   1   ROW     7   COL    11   RATE     839.167    
 BOUNDARY    102   LAYER   1   ROW     7   COL    12   RATE     839.167    
 BOUNDARY    103   LAYER   1   ROW     7   COL    13   RATE     839.167    
 BOUNDARY    104   LAYER   1   ROW     7   COL    14   RATE     839.167    
 BOUNDARY    105   LAYER   1   ROW     7   COL    15   RATE     839.167    
 BOUNDARY    106   LAYER   1   ROW     8   COL     1   RATE     839.167    
 BOUNDARY    107   LAYER   1   ROW     8   COL     2   RATE     839.167    
 BOUNDARY    108   LAYER   1   ROW     8   COL     3   RATE     839.167    
 BOUNDARY    109   LAYER   1   ROW     8   COL     4   RATE     839.167    
 BOUNDARY    110   LAYER   1   ROW     8   COL     5   RATE     839.167    
 BOUNDARY    111   LAYER   1   ROW     8   COL     6   RATE     839.167    
 BOUNDARY    112   LAYER   1   ROW     8   COL     7   RATE     839.167    
 BOUNDARY    113   LAYER   1   ROW     8   COL     8   RATE     839.167    
 BOUNDARY    114   LAYER   1   ROW     8   COL     9   RATE     839.167    
 BOUNDARY    115   LAYER   1   ROW     8   COL    10   RATE     839.167    
 BOUNDARY    116   LAYER   1   ROW     8   COL    11   RATE     839.167    
 BOUNDARY    117   LAYER   1   ROW     8   COL    12   RATE     839.167    
 BOUNDARY    118   LAYER   1   ROW     8   COL    13   RATE     839.167    
 BOUNDARY    119   LAYER   1   ROW     8   COL    14   RATE     839.167    
 BOUNDARY    120   LAYER   1   ROW     8   COL    15   RATE     839.167    
 BOUNDARY    121   LAYER   1   ROW     9   COL     1   RATE     839.167    
 BOUNDARY    122   LAYER   1   ROW     9   COL     2   RATE     839.167    
 BOUNDARY    123   LAYER   1   ROW     9   COL     3   RATE     839.167    
 BOUNDARY    124   LAYER   1   ROW     9   COL     4   RATE     839.167    
 BOUNDARY    125   LAYER   1   ROW     9   COL     5   RATE     839.167    
 BOUNDARY    126   LAYER   1   ROW     9   COL     6   RATE     839.167    
 BOUNDARY    127   LAYER   1   ROW     9   COL     7   RATE     839.167    
 BOUNDARY    128   LAYER   1   ROW     9   COL     8   RATE     839.167    
 BOUNDARY    129   LAYER   1   ROW     9   COL     9   RATE     839.167    
 BOUNDARY    130   LAYER   1   ROW     9   COL    10   RATE     839.167    
 BOUNDARY    131   LAYER   1   ROW     9   COL    11   RATE     839.167    
 BOUNDARY    132   LAYER   1   ROW     9   COL    12   RATE     839.167    
 BOUNDARY    133   LAYER   1   ROW     9   COL    13   RATE     839.167    
 BOUNDARY    134   LAYER   1   ROW     9   COL    14   RATE     839.167    
 BOUNDARY    135   LAYER   1   ROW     9   COL    15   RATE     839.167    
 BOUNDARY    136   LAYER   1   ROW    10   COL     1   RATE     839.167    
 BOUNDARY    137   LAYER   1   ROW    10   COL     2   RATE     839.167    
 BOUNDARY    138   LAYER   1   ROW    10   COL     3   RATE     839.167    
 BOUNDARY    139   LAYER   1   ROW    10   COL     4   RATE     839.167    
 BOUNDARY    140   LAYER   1   ROW    10   COL     5   RATE     839.167    
 BOUNDARY    141   LAYER   1   ROW    10   COL     6   RATE     839.167    
 BOUNDARY    142   LAYER   1   ROW    10   COL     7   RATE     839.167    
 BOUNDARY    143   LAYER   1   ROW    10   COL     8   RATE     839.167    
 BOUNDARY    144   LAYER   1   ROW    10   COL     9   RATE     839.167    
 BOUNDARY    145   LAYER   1   ROW    10   COL    10   RATE     839.167    
 BOUNDARY    146   LAYER   1   ROW    10   COL    11   RATE     839.167    
 BOUNDARY    147   LAYER   1   ROW    10   COL    12   RATE     839.167    
 BOUNDARY    148   LAYER   1   ROW    10   COL    13   RATE     839.167    
 BOUNDARY    149   LAYER   1   ROW    10   COL    14   RATE     839.167    
 BOUNDARY    150   LAYER   1   ROW    10   COL    15   RATE     839.167    
 UBDSV4 SAVING ET SEGS          ON UNIT   1016 AT TIME STEP      8, STRESS PERIOD      6

 ET SEGS            PERIOD  6   STEP  8
 BOUNDARY      1   LAYER   1   ROW     1   COL     1   RATE    -3.59173    
 BOUNDARY      2   LAYER   1   ROW     1   COL     2   RATE    -11.5268    
 BOUNDARY      3   LAYER   1   ROW     1   COL     3   RATE    -74.3367    
 BOUNDARY      4   LAYER   1   ROW     1   COL     4   RATE   -100.0000    
 BOUNDARY      5   LAYER   1   ROW     1   COL     5   RATE   -100.0000    
 BOUNDARY      6   LAYER   1   ROW     1   COL     6   RATE   -100.0000    
 BOUNDARY      7   LAYER   1   ROW     1   COL     7   RATE   -100.0000    
 BOUNDARY      8   LAYER   1   ROW     1   COL     8   RATE   -100.0000    
 BOUNDARY      9   LAYER   1   ROW     1   COL     9   RATE   -100.0000    
 BOUNDARY     10   LAYER   1   ROW     1   COL    10   RATE   -100.0000    
 BOUNDARY     11   LAYER   1   ROW     1   COL    11   RATE   -100.0000    
 BOUNDARY     12   LAYER   1   ROW     1   COL    12   RATE    -21.7886    
 BOUNDARY     13   LAYER   1   ROW     1   COL    13   RATE   -0.597607    
 BOUNDARY     14   LAYER   1   ROW     1   COL    14   RATE     0.00000    
 BOUNDARY     15   LAYER   1   ROW     1   COL    15   RATE     0.00000    
 BOUNDARY     16   LAYER   1   ROW     2   COL     1   RATE     0.00000    
 BOUNDARY     17   LAYER   1   ROW     2   COL     2   RATE    -5.91061    
 BOUNDARY     18   LAYER   1   ROW     2   COL     3   RATE    -46.2256    
 BOUNDARY     19   LAYER   1   ROW     2   COL     4   RATE   -100.0000    
 BOUNDARY     20   LAYER   1   ROW     2   COL     5   RATE   -100.0000    
 BOUNDARY     21   LAYER   1   ROW     2   COL     6   RATE   -100.0000    
 BOUNDARY     22   LAYER   1   ROW     2   COL     7   RATE   -100.0000    
 BOUNDARY     23   LAYER   1   ROW     2   COL     8   RATE   -100.0000    
 BOUNDARY     24   LAYER   1   ROW     2   COL     9   RATE   -100.0000    
 BOUNDARY     25   LAYER   1   ROW     2   COL    10   RATE   -100.0000    
 BOUNDARY     26   LAYER   1   ROW     2   COL    11   RATE   -100.0000    
 BOUNDARY     27   LAYER   1   ROW     2   COL    12   RATE    -23.5324    
 BOUNDARY     28   LAYER   1   ROW     2   COL    13   RATE    -1.58357    
 BOUNDARY     29   LAYER   1   ROW     2   COL    14   RATE     0.00000    
 BOUNDARY     30   LAYER   1   ROW     2   COL    15   RATE     0.00000    
 BOUNDARY     31   LAYER   1   ROW     3   COL     1   RATE     0.00000    
 BOUNDARY     32   LAYER   1   ROW     3   COL     2   RATE     0.00000    
 BOUNDARY     33   LAYER   1   ROW     3   COL     3   RATE    -27.1106    
 BOUNDARY     34   LAYER   1   ROW     3   COL     4   RATE   -100.0000    
 BOUNDARY     35   LAYER   1   ROW     3   COL     5   RATE   -100.0000    
 BOUNDARY     36   LAYER   1   ROW     3   COL     6   RATE   -100.0000    
 BOUNDARY     37   LAYER   1   ROW     3   COL     7   RATE   -100.0000    
 BOUNDARY     38   LAYER   1   ROW     3   COL     8   RATE   -100.0000    
 BOUNDARY     39   LAYER   1   ROW     3   COL     9   RATE   -100.0000    
 BOUNDARY     40   LAYER   1   ROW     3   COL    10   RATE   -100.0000    
 BOUNDARY     41   LAYER   1   ROW     3   COL    11   RATE   -100.0000    
 BOUNDARY     42   LAYER   1   ROW     3   COL    12   RATE    -26.4688    
 BOUNDARY     43   LAYER   1   ROW     3   COL    13   RATE    -3.37828    
 BOUNDARY     44   LAYER   1   ROW     3   COL    14   RATE     0.00000    
 BOUNDARY     45   LAYER   1   ROW     3   COL    15   RATE     0.00000    
 BOUNDARY     46   LAYER   1   ROW     4   COL     1   RATE     0.00000    
 BOUNDARY     47   LAYER   1   ROW     4   COL     2   RATE    -4.39847    
 BOUNDARY     48   LAYER   1   ROW     4   COL     3   RATE    -35.3184    
 BOUNDARY     49   LAYER   1   ROW     4   COL     4   RATE   -100.0000    
 BOUNDARY     50   LAYER   1   ROW     4   COL     5   RATE   -100.0000    
 BOUNDARY     51   LAYER   1   ROW     4   COL     6   RATE   -100.0000    
 BOUNDARY     52   LAYER   1   ROW     4   COL     7   RATE   -100.0000    
 BOUNDARY     53   LAYER   1   ROW     4   COL     8   RATE   -100.0000    
 BOUNDARY     54   LAYER   1   ROW     4   COL     9   RATE   -100.0000    
 BOUNDARY     55   LAYER   1   ROW     4   COL    10   RATE   -100.0000    
 BOUNDARY     56   LAYER   1   ROW     4   COL    11   RATE   -100.0000    
 BOUNDARY     57   LAYER   1   ROW     4   COL    12   RATE    -29.2480    
 BOUNDARY     58   LAYER   1   ROW     4   COL    13   RATE    -4.82567    
 BOUNDARY     59   LAYER   1   ROW     4   COL    14   RATE     0.00000    
 BOUNDARY     60   LAYER   1   ROW     4   COL    15   RATE     0.00000    
 BOUNDARY     61   LAYER   1   ROW     5   COL     1   RATE     0.00000    
 BOUNDARY     62   LAYER   1   ROW     5   COL     2   RATE    -7.39140    
 BOUNDARY     63   LAYER   1   ROW     5   COL     3   RATE    -55.9607    
 BOUNDARY     64   LAYER   1   ROW     5   COL     4   RATE   -100.0000    
 BOUNDARY     65   LAYER   1   ROW     5   COL     5   RATE   -100.0000    
 BOUNDARY     66   LAYER   1   ROW     5   COL     6   RATE   -100.0000    
 BOUNDARY     67   LAYER   1   ROW     5   COL     7   RATE   -100.0000    
 BOUNDARY     68   LAYER   1   ROW     5   COL     8   RATE   -100.0000    
 BOUNDARY     69   LAYER   1   ROW     5   COL     9   RATE   -100.0000    
 BOUNDARY     70   LAYER   1   ROW     5   COL    10   RATE   -100.0000    
 BOUNDARY     71   LAYER   1   ROW     5   COL    11   RATE   -100.0000    
 BOUNDARY     72   LAYER   1   ROW     5   COL    12   RATE    -36.0029    
 BOUNDARY     73   LAYER   1   ROW     5   COL    13   RATE    -5.70239    
 BOUNDARY     74   LAYER   1   ROW     5   COL    14   RATE     0.00000    
 BOUNDARY     75   LAYER   1   ROW     5   COL    15   RATE     0.00000    
 BOUNDARY     76   LAYER   1   ROW     6   COL     1   RATE     0.00000    
 BOUNDARY     77   LAYER   1   ROW     6   COL     2   RATE    -5.92570    
 BOUNDARY     78   LAYER   1   ROW     6   COL     3   RATE    -59.5962    
 BOUNDARY     79   LAYER   1   ROW     6   COL     4   RATE   -100.0000    
 BOUNDARY     80   LAYER   1   ROW     6   COL     5   RATE   -100.0000    
 BOUNDARY     81   LAYER   1   ROW     6   COL     6   RATE   -100.0000    
 BOUNDARY     82   LAYER   1   ROW     6   COL     7   RATE   -100.0000    
 BOUNDARY     83   LAYER   1   ROW     6   COL     8   RATE   -100.0000    
 BOUNDARY     84   LAYER   1   ROW     6   COL     9   RATE   -100.0000    
 BOUNDARY     85   LAYER   1   ROW     6   COL    10   RATE   -100.0000    
 BOUNDARY     86   LAYER   1   ROW     6   COL    11   RATE   -100.0000    
 BOUNDARY     87   LAYER   1   ROW     6   COL    12   RATE    -39.3140    
 BOUNDARY     88   LAYER   1   ROW     6   COL    13   RATE    -5.65107    
 BOUNDARY     89   LAYER   1   ROW     6   COL    14   RATE     0.00000    
 BOUNDARY     90   LAYER   1   ROW     6   COL    15   RATE     0.00000    
 BOUNDARY     91   LAYER   1   ROW     7   COL     1   RATE     0.00000    
 BOUNDARY     92   LAYER   1   ROW     7   COL     2   RATE    -2.33533    
 BOUNDARY     93   LAYER   1   ROW     7   COL     3   RATE    -66.2597    
 BOUNDARY     94   LAYER   1   ROW     7   COL     4   RATE   -100.0000    
 BOUNDARY     95   LAYER   1   ROW     7   COL     5   RATE   -100.0000    
 BOUNDARY     96   LAYER   1   ROW     7   COL     6   RATE   -100.0000    
 BOUNDARY     97   LAYER   1   ROW     7   COL     7   RATE   -100.0000    
 BOUNDARY     98   LAYER   1   ROW     7   COL     8   RATE   -100.0000    
 BOUNDARY     99   LAYER   1   ROW     7   COL     9   RATE   -100.0000    
 BOUNDARY    100   LAYER   1   ROW     7   COL    10   RATE   -100.0000    
 BOUNDARY    101   LAYER   1   ROW     7   COL    11   RATE   -100.0000    
 BOUNDARY    102   LAYER   1   ROW     7   COL    12   RATE    -38.5980    
 BOUNDARY    103   LAYER   1   ROW     7   COL    13   RATE    -4.93979    
 BOUNDARY    104   LAYER   1   ROW     7   COL    14   RATE     0.00000    
 BOUNDARY    105   LAYER   1   ROW     7   COL    15   RATE     0.00000    
 BOUNDARY    106   LAYER   1   ROW     8   COL     1   RATE     0.00000    
 BOUNDARY    107   LAYER   1   ROW     8   COL     2   RATE    -15.9665    
 BOUNDARY    108   LAYER   1   ROW     8   COL     3   RATE   -100.0000    
 BOUNDARY    109   LAYER   1   ROW     8   COL     4   RATE   -100.0000    
 BOUNDARY    110   LAYER   1   ROW     8   COL     5   RATE   -100.0000    
 BOUNDARY    111   LAYER   1   ROW     8   COL     6   RATE   -100.0000    
 BOUNDARY    112   LAYER   1   ROW     8   COL     7   RATE   -100.0000    
 BOUNDARY    113   LAYER   1   ROW     8   COL     8   RATE   -100.0000    
 BOUNDARY    114   LAYER   1   ROW     8   COL     9   RATE   -100.0000    
 BOUNDARY    115   LAYER   1   ROW     8   COL    10   RATE   -100.0000    
 BOUNDARY    116   LAYER   1   ROW     8   COL    11   RATE   -100.0000    
 BOUNDARY    117   LAYER   1   ROW     8   COL    12   RATE    -40.8416    
 BOUNDARY    118   LAYER   1   ROW     8   COL    13   RATE    -4.98281    
 BOUNDARY    119   LAYER   1   ROW     8   COL    14   RATE     0.00000    
 BOUNDARY    120   LAYER   1   ROW     8   COL    15   RATE     0.00000    
 BOUNDARY    121   LAYER   1   ROW     9   COL     1   RATE    -23.5974    
 BOUNDARY    122   LAYER   1   ROW     9   COL     2   RATE    -85.6899    
 BOUNDARY    123   LAYER   1   ROW     9   COL     3   RATE   -100.0000    
 BOUNDARY    124   LAYER   1   ROW     9   COL     4   RATE   -100.0000    
 BOUNDARY    125   LAYER   1   ROW     9   COL     5   RATE   -100.0000    
 BOUNDARY    126   LAYER   1   ROW     9   COL     6   RATE   -100.0000    
 BOUNDARY    127   LAYER   1   ROW     9   COL     7   RATE   -100.0000    
 BOUNDARY    128   LAYER   1   ROW     9   COL     8   RATE   -100.0000    
 BOUNDARY    129   LAYER   1   ROW     9   COL     9   RATE   -100.0000    
 BOUNDARY    130   LAYER   1   ROW     9   COL    10   RATE   -100.0000    
 BOUNDARY    131   LAYER   1   ROW     9   COL    11   RATE   -100.0000    
 BOUNDARY    132   LAYER   1   ROW     9   COL    12   RATE    -46.7890    
 BOUNDARY    133   LAYER   1   ROW     9   COL    13   RATE    -5.85341    
 BOUNDARY    134   LAYER   1   ROW     9   COL    14   RATE     0.00000    
 BOUNDARY    135   LAYER   1   ROW     9   COL    15   RATE     0.00000    
 BOUNDARY    136   LAYER   1   ROW    10   COL     1   RATE    -93.8463    
 BOUNDARY    137   LAYER   1   ROW    10   COL     2   RATE   -100.0000    
 BOUNDARY    138   LAYER   1   ROW    10   COL     3   RATE   -100.0000    
 BOUNDARY    139   LAYER   1   ROW    10   COL     4   RATE   -100.0000    
 BOUNDARY    140   LAYER   1   ROW    10   COL     5   RATE   -100.0000    
 BOUNDARY    141   LAYER   1   ROW    10   COL     6   RATE   -100.0000    
 BOUNDARY    142   LAYER   1   ROW    10   COL     7   RATE   -100.0000    
 BOUNDARY    143   LAYER   1   ROW    10   COL     8   RATE   -100.0000    
 BOUNDARY    144   LAYER   1   ROW    10   COL     9   RATE   -100.0000    
 BOUNDARY    145   LAYER   1   ROW    10   COL    10   RATE   -100.0000    
 BOUNDARY    146   LAYER   1   ROW    10   COL    11   RATE   -100.0000    
 BOUNDARY    147   LAYER   1   ROW    10   COL    12   RATE    -51.0426    
 BOUNDARY    148   LAYER   1   ROW    10   COL    13   RATE    -6.40804    
 BOUNDARY    149   LAYER   1   ROW    10   COL    14   RATE     0.00000    
 BOUNDARY    150   LAYER   1   ROW    10   COL    15   RATE     0.00000    

 HEAD WILL BE SAVED ON UNIT 1017 AT END OF TIME STEP    8, STRESS PERIOD    6
RIV   no.    1 value from time series:   101.00     for time:  129.0     to  130.0    
RIV   no.    2 value from time series:   101.00     for time:  129.0     to  130.0    
RIV   no.    3 value from time series:   111.50     for time:  129.0     to  130.0    
RIV   no.    4 value from time series:   111.50     for time:  129.0     to  130.0    
RIV   no.    5 value from time series:   115.10     for time:  129.0     to  130.0    
RIV   no.    6 value from time series:   115.10     for time:  129.0     to  130.0    
RIV   no.    7 value from time series:   104.00     for time:  129.0     to  130.0    
RIV   no.    8 value from time series:   104.00     for time:  129.0     to  130.0    
RIV   no.    9 value from time series:   113.50     for time:  129.0     to  130.0    
RIV   no.   10 value from time series:   113.50     for time:  129.0     to  130.0    
RIV   no.    1 value from time series:   101.00     for time:  129.0     to  130.0    
RIV   no.    2 value from time series:   101.00     for time:  129.0     to  130.0    
RIV   no.    3 value from time series:   111.50     for time:  129.0     to  130.0    
RIV   no.    4 value from time series:   111.50     for time:  129.0     to  130.0    
RIV   no.    5 value from time series:   115.10     for time:  129.0     to  130.0    
RIV   no.    6 value from time series:   115.10     for time:  129.0     to  130.0    
RIV   no.    7 value from time series:   104.00     for time:  129.0     to  130.0    
RIV   no.    8 value from time series:   104.00     for time:  129.0     to  130.0    
RIV   no.    9 value from time series:   113.50     for time:  129.0     to  130.0    
RIV   no.   10 value from time series:   113.50     for time:  129.0     to  130.0    

 OUTPUT CONTROL FOR STRESS PERIOD    6   TIME STEP    9
    SAVE BUDGET
    SAVE HEAD
    SAVE HEAD FOR ALL LAYERS
 UBDSV1 SAVING          STORAGE ON UNIT   1016 AT TIME STEP      9, STRESS PERIOD      6
 UBDSV1 SAVING FLOW RIGHT FACE  ON UNIT   1016 AT TIME STEP      9, STRESS PERIOD      6
 UBDSV1 SAVING FLOW FRONT FACE  ON UNIT   1016 AT TIME STEP      9, STRESS PERIOD      6
 UBDSV1 SAVING FLOW LOWER FACE  ON UNIT   1016 AT TIME STEP      9, STRESS PERIOD      6
 UBDSV4 SAVING WELLS NEAR RIVER ON UNIT   1016 AT TIME STEP      9, STRESS PERIOD      6
 UBDSV4 SAVING RIVER            ON UNIT   1016 AT TIME STEP      9, STRESS PERIOD      6

 RIVER              PERIOD  6   STEP  9
 BOUNDARY      1   LAYER   1   ROW     1   COL    15   RATE    -5026.58    
 BOUNDARY      2   LAYER   1   ROW     2   COL    15   RATE    -6153.61      RIV2
 BOUNDARY      3   LAYER   1   ROW     3   COL    15   RATE    -2418.42      RIV3
 BOUNDARY      4   LAYER   1   ROW     4   COL    15   RATE    -3883.55    
 BOUNDARY      5   LAYER   1   ROW     5   COL    15   RATE    -2519.63    
 BOUNDARY      6   LAYER   1   ROW     6   COL    15   RATE    -1866.30    
 BOUNDARY      7   LAYER   1   ROW     7   COL    15   RATE    -6353.44      RIVX
 BOUNDARY      8   LAYER   1   ROW     8   COL    15   RATE    -6204.13      RIVX
 BOUNDARY      9   LAYER   1   ROW     9   COL    15   RATE    -2413.43      RIVX
 BOUNDARY     10   LAYER   1   ROW    10   COL    15   RATE    -3321.13    

 GHB LAKES          PERIOD  6   STEP  9
 BOUNDARY      1   LAYER   1   ROW     3   COL     1   RATE    -14993.5    
 BOUNDARY      2   LAYER   1   ROW     7   COL     1   RATE    -2256.03      GHB2_UPPER
 BOUNDARY      3   LAYER   1   ROW     7   COL     1   RATE    -13383.8      GHB2_LOWER
 UBDSV4 SAVING RECHARGE         ON UNIT   1016 AT TIME STEP      9, STRESS PERIOD      6

 RECHARGE           PERIOD  6   STEP  9
 BOUNDARY      1   LAYER   1   ROW     1   COL     1   RATE     840.833    
 BOUNDARY      2   LAYER   1   ROW     1   COL     2   RATE     840.833    
 BOUNDARY      3   LAYER   1   ROW     1   COL     3   RATE     840.833    
 BOUNDARY      4   LAYER   1   ROW     1   COL     4   RATE     840.833    
 BOUNDARY      5   LAYER   1   ROW     1   COL     5   RATE     840.833    
 BOUNDARY      6   LAYER   1   ROW     1   COL     6   RATE     840.833    
 BOUNDARY      7   LAYER   1   ROW     1   COL     7   RATE     840.833    
 BOUNDARY      8   LAYER   1   ROW     1   COL     8   RATE     840.833    
 BOUNDARY      9   LAYER   1   ROW     1   COL     9   RATE     840.833    
 BOUNDARY     10   LAYER   1   ROW     1   COL    10   RATE     840.833    
 BOUNDARY     11   LAYER   1   ROW     1   COL    11   RATE     840.833    
 BOUNDARY     12   LAYER   1   ROW     1   COL    12   RATE     840.833    
 BOUNDARY     13   LAYER   1   ROW     1   COL    13   RATE     840.833    
 BOUNDARY     14   LAYER   1   ROW     1   COL    14   RATE     840.833    
 BOUNDARY     15   LAYER   1   ROW     1   COL    15   RATE     840.833    
 BOUNDARY     16   LAYER   1   ROW     2   COL     1   RATE     840.833    
 BOUNDARY     17   LAYER   1   ROW     2   COL     2   RATE     840.833    
 BOUNDARY     18   LAYER   1   ROW     2   COL     3   RATE     840.833    
 BOUNDARY     19   LAYER   1   ROW     2   COL     4   RATE     840.833    
 BOUNDARY     20   LAYER   1   ROW     2   COL     5   RATE     840.833    
 BOUNDARY     21   LAYER   1   ROW     2   COL     6   RATE     840.833    
 BOUNDARY     22   LAYER   1   ROW     2   COL     7   RATE     840.833    
 BOUNDARY     23   LAYER   1   ROW     2   COL     8   RATE     840.833    
 BOUNDARY     24   LAYER   1   ROW     2   COL     9   RATE     840.833    
 BOUNDARY     25   LAYER   1   ROW     2   COL    10   RATE     840.833    
 BOUNDARY     26   LAYER   1   ROW     2   COL    11   RATE     840.833    
 BOUNDARY     27   LAYER   1   ROW     2   COL    12   RATE     840.833    
 BOUNDARY     28   LAYER   1   ROW     2   COL    13   RATE     840.833    
 BOUNDARY     29   LAYER   1   ROW     2   COL    14   RATE     840.833    
 BOUNDARY     30   LAYER   1   ROW     2   COL    15   RATE     840.833    
 BOUNDARY     31   LAYER   1   ROW     3   COL     1   RATE     840.833    
 BOUNDARY     32   LAYER   1   ROW     3   COL     2   RATE     840.833    
 BOUNDARY     33   LAYER   1   ROW     3   COL     3   RATE     840.833    
 BOUNDARY     34   LAYER   1   ROW     3   COL     4   RATE     840.833    
 BOUNDARY     35   LAYER   1   ROW     3   COL     5   RATE     840.833    
 BOUNDARY     36   LAYER   1   ROW     3   COL     6   RATE     840.833    
 BOUNDARY     37   LAYER   1   ROW     3   COL     7   RATE     840.833    
 BOUNDARY     38   LAYER   1   ROW     3   COL     8   RATE     840.833    
 BOUNDARY     39   LAYER   1   ROW     3   COL     9   RATE     840.833    
 BOUNDARY     40   LAYER   1   ROW     3   COL    10   RATE     840.833    
 BOUNDARY     41   LAYER   1   ROW     3   COL    11   RATE     840.833    
 BOUNDARY     42   LAYER   1   ROW     3   COL    12   RATE     840.833    
 BOUNDARY     43   LAYER   1   ROW     3   COL    13   RATE     840.833    
 BOUNDARY     44   LAYER   1   ROW     3   COL    14   RATE     840.833    
 BOUNDARY     45   LAYER   1   ROW     3   COL    15   RATE     840.833    
 BOUNDARY     46   LAYER   1   ROW     4   COL     1   RATE     840.833    
 BOUNDARY     47   LAYER   1   ROW     4   COL     2   RATE     840.833    
 BOUNDARY     48   LAYER   1   ROW     4   COL     3   RATE     840.833    
 BOUNDARY     49   LAYER   1   ROW     4   COL     4   RATE     840.833    
 BOUNDARY     50   LAYER   1   ROW     4   COL     5   RATE     840.833    
 BOUNDARY     51   LAYER   1   ROW     4   COL     6   RATE     840.833    
 BOUNDARY     52   LAYER   1   ROW     4   COL     7   RATE     840.833    
 BOUNDARY     53   LAYER   1   ROW     4   COL     8   RATE     840.833    
 BOUNDARY     54   LAYER   1   ROW     4   COL     9   RATE     840.833    
 BOUNDARY     55   LAYER   1   ROW     4   COL    10   RATE     840.833    
 BOUNDARY     56   LAYER   1   ROW     4   COL    11   RATE     840.833    
 BOUNDARY     57   LAYER   1   ROW     4   COL    12   RATE     840.833    
 BOUNDARY     58   LAYER   1   ROW     4   COL    13   RATE     840.833    
 BOUNDARY     59   LAYER   1   ROW     4   COL    14   RATE     840.833    
 BOUNDARY     60   LAYER   1   ROW     4   COL    15   RATE     840.833    
 BOUNDARY     61   LAYER   1   ROW     5   COL     1   RATE     840.833    
 BOUNDARY     62   LAYER   1   ROW     5   COL     2   RATE     840.833    
 BOUNDARY     63   LAYER   1   ROW     5   COL     3   RATE     840.833    
 BOUNDARY     64   LAYER   1   ROW     5   COL     4   RATE     840.833    
 BOUNDARY     65   LAYER   1   ROW     5   COL     5   RATE     840.833    
 BOUNDARY     66   LAYER   1   ROW     5   COL     6   RATE     840.833    
 BOUNDARY     67   LAYER   1   ROW     5   COL     7   RATE     840.833    
 BOUNDARY     68   LAYER   1   ROW     5   COL     8   RATE     840.833    
 BOUNDARY     69   LAYER   1   ROW     5   COL     9   RATE     840.833    
 BOUNDARY     70   LAYER   1   ROW     5   COL    10   RATE     840.833    
 BOUNDARY     71   LAYER   1   ROW     5   COL    11   RATE     840.833    
 BOUNDARY     72   LAYER   1   ROW     5   COL    12   RATE     840.833    
 BOUNDARY     73   LAYER   1   ROW     5   COL    13   RATE     840.833    
 BOUNDARY     74   LAYER   1   ROW     5   COL    14   RATE     840.833    
 BOUNDARY     75   LAYER   1   ROW     5   COL    15   RATE     840.833    
 BOUNDARY     76   LAYER   1   ROW     6   COL     1   RATE     840.833    
 BOUNDARY     77   LAYER   1   ROW     6   COL     2   RATE     840.833    
 BOUNDARY     78   LAYER   1   ROW     6   COL     3   RATE     840.833    
 BOUNDARY     79   LAYER   1   ROW     6   COL     4   RATE     840.833    
 BOUNDARY     80   LAYER   1   ROW     6   COL     5   RATE     840.833    
 BOUNDARY     81   LAYER   1   ROW     6   COL     6   RATE     840.833    
 BOUNDARY     82   LAYER   1   ROW     6   COL     7   RATE     840.833    
 BOUNDARY     83   LAYER   1   ROW     6   COL     8   RATE     840.833    
 BOUNDARY     84   LAYER   1   ROW     6   COL     9   RATE     840.833    
 BOUNDARY     85   LAYER   1   ROW     6   COL    10   RATE     840.833    
 BOUNDARY     86   LAYER   1   ROW     6   COL    11   RATE     840.833    
 BOUNDARY     87   LAYER   1   ROW     6   COL    12   RATE     840.833    
 BOUNDARY     88   LAYER   1   ROW     6   COL    13   RATE     840.833    
 BOUNDARY     89   LAYER   1   ROW     6   COL    14   RATE     840.833    
 BOUNDARY     90   LAYER   1   ROW     6   COL    15   RATE     840.833    
 BOUNDARY     91   LAYER   1   ROW     7   COL     1   RATE     840.833    
 BOUNDARY     92   LAYER   1   ROW     7   COL     2   RATE     840.833    
 BOUNDARY     93   LAYER   1   ROW     7   COL     3   RATE     840.833    
 BOUNDARY     94   LAYER   1   ROW     7   COL     4   RATE     840.833    
 BOUNDARY     95   LAYER   1   ROW     7   COL     5   RATE     840.833    
 BOUNDARY     96   LAYER   1   ROW     7   COL     6   RATE     840.833    
 BOUNDARY     97   LAYER   1   ROW     7   COL     7   RATE     840.833    
 BOUNDARY     98   LAYER   1   ROW     7   COL     8   RATE     840.833    
 BOUNDARY     99   LAYER   1   ROW     7   COL     9   RATE     840.833    
 BOUNDARY    100   LAYER   1   ROW     7   COL    10   RATE     840.833    
 BOUNDARY    101   LAYER   1   ROW     7   COL    11   RATE     840.833    
 BOUNDARY    102   LAYER   1   ROW     7   COL    12   RATE     840.833    
 BOUNDARY    103   LAYER   1   ROW     7   COL    13   RATE     840.833    
 BOUNDARY    104   LAYER   1   ROW     7   COL    14   RATE     840.833    
 BOUNDARY    105   LAYER   1   ROW     7   COL    15   RATE     840.833    
 BOUNDARY    106   LAYER   1   ROW     8   COL     1   RATE     840.833    
 BOUNDARY    107   LAYER   1   ROW     8   COL     2   RATE     840.833    
 BOUNDARY    108   LAYER   1   ROW     8   COL     3   RATE     840.833    
 BOUNDARY    109   LAYER   1   ROW     8   COL     4   RATE     840.833    
 BOUNDARY    110   LAYER   1   ROW     8   COL     5   RATE     840.833    
 BOUNDARY    111   LAYER   1   ROW     8   COL     6   RATE     840.833    
 BOUNDARY    112   LAYER   1   ROW     8   COL     7   RATE     840.833    
 BOUNDARY    113   LAYER   1   ROW     8   COL     8   RATE     840.833    
 BOUNDARY    114   LAYER   1   ROW     8   COL     9   RATE     840.833    
 BOUNDARY    115   LAYER   1   ROW     8   COL    10   RATE     840.833    
 BOUNDARY    116   LAYER   1   ROW     8   COL    11   RATE     840.833    
 BOUNDARY    117   LAYER   1   ROW     8   COL    12   RATE     840.833    
 BOUNDARY    118   LAYER   1   ROW     8   COL    13   RATE     840.833    
 BOUNDARY    119   LAYER   1   ROW     8   COL    14   RATE     840.833    
 BOUNDARY    120   LAYER   1   ROW     8   COL    15   RATE     840.833    
 BOUNDARY    121   LAYER   1   ROW     9   COL     1   RATE     840.833    
 BOUNDARY    122   LAYER   1   ROW     9   COL     2   RATE     840.833    
 BOUNDARY    123   LAYER   1   ROW     9   COL     3   RATE     840.833    
 BOUNDARY    124   LAYER   1   ROW     9   COL     4   RATE     840.833    
 BOUNDARY    125   LAYER   1   ROW     9   COL     5   RATE     840.833    
 BOUNDARY    126   LAYER   1   ROW     9   COL     6   RATE     840.833    
 BOUNDARY    127   LAYER   1   ROW     9   COL     7   RATE     840.833    
 BOUNDARY    128   LAYER   1   ROW     9   COL     8   RATE     840.833    
 BOUNDARY    129   LAYER   1   ROW     9   COL     9   RATE     840.833    
 BOUNDARY    130   LAYER   1   ROW     9   COL    10   RATE     840.833    
 BOUNDARY    131   LAYER   1   ROW     9   COL    11   RATE     840.833    
 BOUNDARY    132   LAYER   1   ROW     9   COL    12   RATE     840.833    
 BOUNDARY    133   LAYER   1   ROW     9   COL    13   RATE     840.833    
 BOUNDARY    134   LAYER   1   ROW     9   COL    14   RATE     840.833    
 BOUNDARY    135   LAYER   1   ROW     9   COL    15   RATE     840.833    
 BOUNDARY    136   LAYER   1   ROW    10   COL     1   RATE     840.833    
 BOUNDARY    137   LAYER   1   ROW    10   COL     2   RATE     840.833    
 BOUNDARY    138   LAYER   1   ROW    10   COL     3   RATE     840.833    
 BOUNDARY    139   LAYER   1   ROW    10   COL     4   RATE     840.833    
 BOUNDARY    140   LAYER   1   ROW    10   COL     5   RATE     840.833    
 BOUNDARY    141   LAYER   1   ROW    10   COL     6   RATE     840.833    
 BOUNDARY    142   LAYER   1   ROW    10   COL     7   RATE     840.833    
 BOUNDARY    143   LAYER   1   ROW    10   COL     8   RATE     840.833    
 BOUNDARY    144   LAYER   1   ROW    10   COL     9   RATE     840.833    
 BOUNDARY    145   LAYER   1   ROW    10   COL    10   RATE     840.833    
 BOUNDARY    146   LAYER   1   ROW    10   COL    11   RATE     840.833    
 BOUNDARY    147   LAYER   1   ROW    10   COL    12   RATE     840.833    
 BOUNDARY    148   LAYER   1   ROW    10   COL    13   RATE     840.833    
 BOUNDARY    149   LAYER   1   ROW    10   COL    14   RATE     840.833    
 BOUNDARY    150   LAYER   1   ROW    10   COL    15   RATE     840.833    
 UBDSV4 SAVING ET SEGS          ON UNIT   1016 AT TIME STEP      9, STRESS PERIOD      6

 ET SEGS            PERIOD  6   STEP  9
 BOUNDARY      1   LAYER   1   ROW     1   COL     1   RATE    -3.61687    
 BOUNDARY      2   LAYER   1   ROW     1   COL     2   RATE    -11.6120    
 BOUNDARY      3   LAYER   1   ROW     1   COL     3   RATE    -74.7824    
 BOUNDARY      4   LAYER   1   ROW     1   COL     4   RATE   -100.0000    
 BOUNDARY      5   LAYER   1   ROW     1   COL     5   RATE   -100.0000    
 BOUNDARY      6   LAYER   1   ROW     1   COL     6   RATE   -100.0000    
 BOUNDARY      7   LAYER   1   ROW     1   COL     7   RATE   -100.0000    
 BOUNDARY      8   LAYER   1   ROW     1   COL     8   RATE   -100.0000    
 BOUNDARY      9   LAYER   1   ROW     1   COL     9   RATE   -100.0000    
 BOUNDARY     10   LAYER   1   ROW     1   COL    10   RATE   -100.0000    
 BOUNDARY     11   LAYER   1   ROW     1   COL    11   RATE   -100.0000    
 BOUNDARY     12   LAYER   1   ROW     1   COL    12   RATE    -21.8758    
 BOUNDARY     13   LAYER   1   ROW     1   COL    13   RATE   -0.622650    
 BOUNDARY     14   LAYER   1   ROW     1   COL    14   RATE     0.00000    
 BOUNDARY     15   LAYER   1   ROW     1   COL    15   RATE     0.00000    
 BOUNDARY     16   LAYER   1   ROW     2   COL     1   RATE     0.00000    
 BOUNDARY     17   LAYER   1   ROW     2   COL     2   RATE    -5.93547    
 BOUNDARY     18   LAYER   1   ROW     2   COL     3   RATE    -46.6703    
 BOUNDARY     19   LAYER   1   ROW     2   COL     4   RATE   -100.0000    
 BOUNDARY     20   LAYER   1   ROW     2   COL     5   RATE   -100.0000    
 BOUNDARY     21   LAYER   1   ROW     2   COL     6   RATE   -100.0000    
 BOUNDARY     22   LAYER   1   ROW     2   COL     7   RATE   -100.0000    
 BOUNDARY     23   LAYER   1   ROW     2   COL     8   RATE   -100.0000    
 BOUNDARY     24   LAYER   1   ROW     2   COL     9   RATE   -100.0000    
 BOUNDARY     25   LAYER   1   ROW     2   COL    10   RATE   -100.0000    
 BOUNDARY     26   LAYER   1   ROW     2   COL    11   RATE   -100.0000    
 BOUNDARY     27   LAYER   1   ROW     2   COL    12   RATE    -23.6195    
 BOUNDARY     28   LAYER   1   ROW     2   COL    13   RATE    -1.60864    
 BOUNDARY     29   LAYER   1   ROW     2   COL    14   RATE     0.00000    
 BOUNDARY     30   LAYER   1   ROW     2   COL    15   RATE     0.00000    
 BOUNDARY     31   LAYER   1   ROW     3   COL     1   RATE     0.00000    
 BOUNDARY     32   LAYER   1   ROW     3   COL     2   RATE     0.00000    
 BOUNDARY     33   LAYER   1   ROW     3   COL     3   RATE    -27.1955    
 BOUNDARY     34   LAYER   1   ROW     3   COL     4   RATE   -100.0000    
 BOUNDARY     35   LAYER   1   ROW     3   COL     5   RATE   -100.0000    
 BOUNDARY     36   LAYER   1   ROW     3   COL     6   RATE   -100.0000    
 BOUNDARY     37   LAYER   1   ROW     3   COL     7   RATE   -100.0000    
 BOUNDARY     38   LAYER   1   ROW     3   COL     8   RATE   -100.0000    
 BOUNDARY     39   LAYER   1   ROW     3   COL     9   RATE   -100.0000    
 BOUNDARY     40   LAYER   1   ROW     3   COL    10   RATE   -100.0000    
 BOUNDARY     41   LAYER   1   ROW     3   COL    11   RATE   -100.0000    
 BOUNDARY     42   LAYER   1   ROW     3   COL    12   RATE    -26.5559    
 BOUNDARY     43   LAYER   1   ROW     3   COL    13   RATE    -3.40332    
 BOUNDARY     44   LAYER   1   ROW     3   COL    14   RATE     0.00000    
 BOUNDARY     45   LAYER   1   ROW     3   COL    15   RATE     0.00000    
 BOUNDARY     46   LAYER   1   ROW     4   COL     1   RATE     0.00000    
 BOUNDARY     47   LAYER   1   ROW     4   COL     2   RATE    -4.42318    
 BOUNDARY     48   LAYER   1   ROW     4   COL     3   RATE    -35.7629    
 BOUNDARY     49   LAYER   1   ROW     4   COL     4   RATE   -100.0000    
 BOUNDARY     50   LAYER   1   ROW     4   COL     5   RATE   -100.0000    
 BOUNDARY     51   LAYER   1   ROW     4   COL     6   RATE   -100.0000    
 BOUNDARY     52   LAYER   1   ROW     4   COL     7   RATE   -100.0000    
 BOUNDARY     53   LAYER   1   ROW     4   COL     8   RATE   -100.0000    
 BOUNDARY     54   LAYER   1   ROW     4   COL     9   RATE   -100.0000    
 BOUNDARY     55   LAYER   1   ROW     4   COL    10   RATE   -100.0000    
 BOUNDARY     56   LAYER   1   ROW     4   COL    11   RATE   -100.0000    
 BOUNDARY     57   LAYER   1   ROW     4   COL    12   RATE    -29.3348    
 BOUNDARY     58   LAYER   1   ROW     4   COL    13   RATE    -4.85061    
 BOUNDARY     59   LAYER   1   ROW     4   COL    14   RATE     0.00000    
 BOUNDARY     60   LAYER   1   ROW     4   COL    15   RATE     0.00000    
 BOUNDARY     61   LAYER   1   ROW     5   COL     1   RATE     0.00000    
 BOUNDARY     62   LAYER   1   ROW     5   COL     2   RATE    -7.41651    
 BOUNDARY     63   LAYER   1   ROW     5   COL     3   RATE    -56.4020    
 BOUNDARY     64   LAYER   1   ROW     5   COL     4   RATE   -100.0000    
 BOUNDARY     65   LAYER   1   ROW     5   COL     5   RATE   -100.0000    
 BOUNDARY     66   LAYER   1   ROW     5   COL     6   RATE   -100.0000    
 BOUNDARY     67   LAYER   1   ROW     5   COL     7   RATE   -100.0000    
 BOUNDARY     68   LAYER   1   ROW     5   COL     8   RATE   -100.0000    
 BOUNDARY     69   LAYER   1   ROW     5   COL     9   RATE   -100.0000    
 BOUNDARY     70   LAYER   1   ROW     5   COL    10   RATE   -100.0000    
 BOUNDARY     71   LAYER   1   ROW     5   COL    11   RATE   -100.0000    
 BOUNDARY     72   LAYER   1   ROW     5   COL    12   RATE    -36.4524    
 BOUNDARY     73   LAYER   1   ROW     5   COL    13   RATE    -5.72716    
 BOUNDARY     74   LAYER   1   ROW     5   COL    14   RATE     0.00000    
 BOUNDARY     75   LAYER   1   ROW     5   COL    15   RATE     0.00000    
 BOUNDARY     76   LAYER   1   ROW     6   COL     1   RATE     0.00000    
 BOUNDARY     77   LAYER   1   ROW     6   COL     2   RATE    -5.95002    
 BOUNDARY     78   LAYER   1   ROW     6   COL     3   RATE    -60.0324    
 BOUNDARY     79   LAYER   1   ROW     6   COL     4   RATE   -100.0000    
 BOUNDARY     80   LAYER   1   ROW     6   COL     5   RATE   -100.0000    
 BOUNDARY     81   LAYER   1   ROW     6   COL     6   RATE   -100.0000    
 BOUNDARY     82   LAYER   1   ROW     6   COL     7   RATE   -100.0000    
 BOUNDARY     83   LAYER   1   ROW     6   COL     8   RATE   -100.0000    
 BOUNDARY     84   LAYER   1   ROW     6   COL     9   RATE   -100.0000    
 BOUNDARY     85   LAYER   1   ROW     6   COL    10   RATE   -100.0000    
 BOUNDARY     86   LAYER   1   ROW     6   COL    11   RATE   -100.0000    
 BOUNDARY     87   LAYER   1   ROW     6   COL    12   RATE    -39.7612    
 BOUNDARY     88   LAYER   1   ROW     6   COL    13   RATE    -5.67578    
 BOUNDARY     89   LAYER   1   ROW     6   COL    14   RATE     0.00000    
 BOUNDARY     90   LAYER   1   ROW     6   COL    15   RATE     0.00000    
 BOUNDARY     91   LAYER   1   ROW     7   COL     1   RATE     0.00000    
 BOUNDARY     92   LAYER   1   ROW     7   COL     2   RATE    -2.35781    
 BOUNDARY     93   LAYER   1   ROW     7   COL     3   RATE    -66.6919    
 BOUNDARY     94   LAYER   1   ROW     7   COL     4   RATE   -100.0000    
 BOUNDARY     95   LAYER   1   ROW     7   COL     5   RATE   -100.0000    
 BOUNDARY     96   LAYER   1   ROW     7   COL     6   RATE   -100.0000    
 BOUNDARY     97   LAYER   1   ROW     7   COL     7   RATE   -100.0000    
 BOUNDARY     98   LAYER   1   ROW     7   COL     8   RATE   -100.0000    
 BOUNDARY     99   LAYER   1   ROW     7   COL     9   RATE   -100.0000    
 BOUNDARY    100   LAYER   1   ROW     7   COL    10   RATE   -100.0000    
 BOUNDARY    101   LAYER   1   ROW     7   COL    11   RATE   -100.0000    
 BOUNDARY    102   LAYER   1   ROW     7   COL    12   RATE    -39.0462    
 BOUNDARY    103   LAYER   1   ROW     7   COL    13   RATE    -4.96467    
 BOUNDARY    104   LAYER   1   ROW     7   COL    14   RATE     0.00000    
 BOUNDARY    105   LAYER   1   ROW     7   COL    15   RATE     0.00000    
 BOUNDARY    106   LAYER   1   ROW     8   COL     1   RATE     0.00000    
 BOUNDARY    107   LAYER   1   ROW     8   COL     2   RATE    -16.0477    
 BOUNDARY    108   LAYER   1   ROW     8   COL     3   RATE   -100.0000    
 BOUNDARY    109   LAYER   1   ROW     8   COL     4   RATE   -100.0000    
 BOUNDARY    110   LAYER   1   ROW     8   COL     5   RATE   -100.0000    
 BOUNDARY    111   LAYER   1   ROW     8   COL     6   RATE   -100.0000    
 BOUNDARY    112   LAYER   1   ROW     8   COL     7   RATE   -100.0000    
 BOUNDARY    113   LAYER   1   ROW     8   COL     8   RATE   -100.0000    
 BOUNDARY    114   LAYER   1   ROW     8   COL     9   RATE   -100.0000    
 BOUNDARY    115   LAYER   1   ROW     8   COL    10   RATE   -100.0000    
 BOUNDARY    116   LAYER   1   ROW     8   COL    11   RATE   -100.0000    
 BOUNDARY    117   LAYER   1   ROW     8   COL    12   RATE    -41.2913    
 BOUNDARY    118   LAYER   1   ROW     8   COL    13   RATE    -5.00797    
 BOUNDARY    119   LAYER   1   ROW     8   COL    14   RATE     0.00000    
 BOUNDARY    120   LAYER   1   ROW     8   COL    15   RATE     0.00000    
 BOUNDARY    121   LAYER   1   ROW     9   COL     1   RATE    -23.6796    
 BOUNDARY    122   LAYER   1   ROW     9   COL     2   RATE    -86.1280    
 BOUNDARY    123   LAYER   1   ROW     9   COL     3   RATE   -100.0000    
 BOUNDARY    124   LAYER   1   ROW     9   COL     4   RATE   -100.0000    
 BOUNDARY    125   LAYER   1   ROW     9   COL     5   RATE   -100.0000    
 BOUNDARY    126   LAYER   1   ROW     9   COL     6   RATE   -100.0000    
 BOUNDARY    127   LAYER   1   ROW     9   COL     7   RATE   -100.0000    
 BOUNDARY    128   LAYER   1   ROW     9   COL     8   RATE   -100.0000    
 BOUNDARY    129   LAYER   1   ROW     9   COL     9   RATE   -100.0000    
 BOUNDARY    130   LAYER   1   ROW     9   COL    10   RATE   -100.0000    
 BOUNDARY    131   LAYER   1   ROW     9   COL    11   RATE   -100.0000    
 BOUNDARY    132   LAYER   1   ROW     9   COL    12   RATE    -47.2400    
 BOUNDARY    133   LAYER   1   ROW     9   COL    13   RATE    -5.87881    
 BOUNDARY    134   LAYER   1   ROW     9   COL    14   RATE     0.00000    
 BOUNDARY    135   LAYER   1   ROW     9   COL    15   RATE     0.00000    
 BOUNDARY    136   LAYER   1   ROW    10   COL     1   RATE    -94.2827    
 BOUNDARY    137   LAYER   1   ROW    10   COL     2   RATE   -100.0000    
 BOUNDARY    138   LAYER   1   ROW    10   COL     3   RATE   -100.0000    
 BOUNDARY    139   LAYER   1   ROW    10   COL     4   RATE   -100.0000    
 BOUNDARY    140   LAYER   1   ROW    10   COL     5   RATE   -100.0000    
 BOUNDARY    141   LAYER   1   ROW    10   COL     6   RATE   -100.0000    
 BOUNDARY    142   LAYER   1   ROW    10   COL     7   RATE   -100.0000    
 BOUNDARY    143   LAYER   1   ROW    10   COL     8   RATE   -100.0000    
 BOUNDARY    144   LAYER   1   ROW    10   COL     9   RATE   -100.0000    
 BOUNDARY    145   LAYER   1   ROW    10   COL    10   RATE   -100.0000    
 BOUNDARY    146   LAYER   1   ROW    10   COL    11   RATE   -100.0000    
 BOUNDARY    147   LAYER   1   ROW    10   COL    12   RATE    -51.4946    
 BOUNDARY    148   LAYER   1   ROW    10   COL    13   RATE    -6.43361    
 BOUNDARY    149   LAYER   1   ROW    10   COL    14   RATE     0.00000    
 BOUNDARY    150   LAYER   1   ROW    10   COL    15   RATE     0.00000    

 HEAD WILL BE SAVED ON UNIT 1017 AT END OF TIME STEP    9, STRESS PERIOD    6
RIV   no.    1 value from time series:   101.00     for time:  130.0     to  131.0    
RIV   no.    2 value from time series:   101.00     for time:  130.0     to  131.0    
RIV   no.    3 value from time series:   111.50     for time:  130.0     to  131.0    
RIV   no.    4 value from time series:   111.50     for time:  130.0     to  131.0    
RIV   no.    5 value from time series:   115.10     for time:  130.0     to  131.0    
RIV   no.    6 value from time series:   115.10     for time:  130.0     to  131.0    
RIV   no.    7 value from time series:   104.00     for time:  130.0     to  131.0    
RIV   no.    8 value from time series:   104.00     for time:  130.0     to  131.0    
RIV   no.    9 value from time series:   113.50     for time:  130.0     to  131.0    
RIV   no.   10 value from time series:   113.50     for time:  130.0     to  131.0    
RIV   no.    1 value from time series:   101.00     for time:  130.0     to  131.0    
RIV   no.    2 value from time series:   101.00     for time:  130.0     to  131.0    
RIV   no.    3 value from time series:   111.50     for time:  130.0     to  131.0    
RIV   no.    4 value from time series:   111.50     for time:  130.0     to  131.0    
RIV   no.    5 value from time series:   115.10     for time:  130.0     to  131.0    
RIV   no.    6 value from time series:   115.10     for time:  130.0     to  131.0    
RIV   no.    7 value from time series:   104.00     for time:  130.0     to  131.0    
RIV   no.    8 value from time series:   104.00     for time:  130.0     to  131.0    
RIV   no.    9 value from time series:   113.50     for time:  130.0     to  131.0    
RIV   no.   10 value from time series:   113.50     for time:  130.0     to  131.0    

 OUTPUT CONTROL FOR STRESS PERIOD    6   TIME STEP   10
    PRINT HEAD
    PRINT HEAD FOR ALL LAYERS
    SAVE BUDGET
    SAVE HEAD
    SAVE HEAD FOR ALL LAYERS
 UBDSV1 SAVING          STORAGE ON UNIT   1016 AT TIME STEP     10, STRESS PERIOD      6
 UBDSV1 SAVING FLOW RIGHT FACE  ON UNIT   1016 AT TIME STEP     10, STRESS PERIOD      6
 UBDSV1 SAVING FLOW FRONT FACE  ON UNIT   1016 AT TIME STEP     10, STRESS PERIOD      6
 UBDSV1 SAVING FLOW LOWER FACE  ON UNIT   1016 AT TIME STEP     10, STRESS PERIOD      6
 UBDSV4 SAVING WELLS NEAR RIVER ON UNIT   1016 AT TIME STEP     10, STRESS PERIOD      6
 UBDSV4 SAVING RIVER            ON UNIT   1016 AT TIME STEP     10, STRESS PERIOD      6

 RIVER              PERIOD  6   STEP 10
 BOUNDARY      1   LAYER   1   ROW     1   COL    15   RATE    -5030.84    
 BOUNDARY      2   LAYER   1   ROW     2   COL    15   RATE    -6157.93      RIV2
 BOUNDARY      3   LAYER   1   ROW     3   COL    15   RATE    -2422.65      RIV3
 BOUNDARY      4   LAYER   1   ROW     4   COL    15   RATE    -3887.83    
 BOUNDARY      5   LAYER   1   ROW     5   COL    15   RATE    -2523.86    
 BOUNDARY      6   LAYER   1   ROW     6   COL    15   RATE    -1870.51    
 BOUNDARY      7   LAYER   1   ROW     7   COL    15   RATE    -6357.81      RIVX
 BOUNDARY      8   LAYER   1   ROW     8   COL    15   RATE    -6208.55      RIVX
 BOUNDARY      9   LAYER   1   ROW     9   COL    15   RATE    -2417.80      RIVX
 BOUNDARY     10   LAYER   1   ROW    10   COL    15   RATE    -3325.56    

 GHB LAKES          PERIOD  6   STEP 10
 BOUNDARY      1   LAYER   1   ROW     3   COL     1   RATE    -15001.7    
 BOUNDARY      2   LAYER   1   ROW     7   COL     1   RATE    -2262.48      GHB2_UPPER
 BOUNDARY      3   LAYER   1   ROW     7   COL     1   RATE    -13386.1      GHB2_LOWER
 UBDSV4 SAVING RECHARGE         ON UNIT   1016 AT TIME STEP     10, STRESS PERIOD      6

 RECHARGE           PERIOD  6   STEP 10
 BOUNDARY      1   LAYER   1   ROW     1   COL     1   RATE     842.500    
 BOUNDARY      2   LAYER   1   ROW     1   COL     2   RATE     842.500    
 BOUNDARY      3   LAYER   1   ROW     1   COL     3   RATE     842.500    
 BOUNDARY      4   LAYER   1   ROW     1   COL     4   RATE     842.500    
 BOUNDARY      5   LAYER   1   ROW     1   COL     5   RATE     842.500    
 BOUNDARY      6   LAYER   1   ROW     1   COL     6   RATE     842.500    
 BOUNDARY      7   LAYER   1   ROW     1   COL     7   RATE     842.500    
 BOUNDARY      8   LAYER   1   ROW     1   COL     8   RATE     842.500    
 BOUNDARY      9   LAYER   1   ROW     1   COL     9   RATE     842.500    
 BOUNDARY     10   LAYER   1   ROW     1   COL    10   RATE     842.500    
 BOUNDARY     11   LAYER   1   ROW     1   COL    11   RATE     842.500    
 BOUNDARY     12   LAYER   1   ROW     1   COL    12   RATE     842.500    
 BOUNDARY     13   LAYER   1   ROW     1   COL    13   RATE     842.500    
 BOUNDARY     14   LAYER   1   ROW     1   COL    14   RATE     842.500    
 BOUNDARY     15   LAYER   1   ROW     1   COL    15   RATE     842.500    
 BOUNDARY     16   LAYER   1   ROW     2   COL     1   RATE     842.500    
 BOUNDARY     17   LAYER   1   ROW     2   COL     2   RATE     842.500    
 BOUNDARY     18   LAYER   1   ROW     2   COL     3   RATE     842.500    
 BOUNDARY     19   LAYER   1   ROW     2   COL     4   RATE     842.500    
 BOUNDARY     20   LAYER   1   ROW     2   COL     5   RATE     842.500    
 BOUNDARY     21   LAYER   1   ROW     2   COL     6   RATE     842.500    
 BOUNDARY     22   LAYER   1   ROW     2   COL     7   RATE     842.500    
 BOUNDARY     23   LAYER   1   ROW     2   COL     8   RATE     842.500    
 BOUNDARY     24   LAYER   1   ROW     2   COL     9   RATE     842.500    
 BOUNDARY     25   LAYER   1   ROW     2   COL    10   RATE     842.500    
 BOUNDARY     26   LAYER   1   ROW     2   COL    11   RATE     842.500    
 BOUNDARY     27   LAYER   1   ROW     2   COL    12   RATE     842.500    
 BOUNDARY     28   LAYER   1   ROW     2   COL    13   RATE     842.500    
 BOUNDARY     29   LAYER   1   ROW     2   COL    14   RATE     842.500    
 BOUNDARY     30   LAYER   1   ROW     2   COL    15   RATE     842.500    
 BOUNDARY     31   LAYER   1   ROW     3   COL     1   RATE     842.500    
 BOUNDARY     32   LAYER   1   ROW     3   COL     2   RATE     842.500    
 BOUNDARY     33   LAYER   1   ROW     3   COL     3   RATE     842.500    
 BOUNDARY     34   LAYER   1   ROW     3   COL     4   RATE     842.500    
 BOUNDARY     35   LAYER   1   ROW     3   COL     5   RATE     842.500    
 BOUNDARY     36   LAYER   1   ROW     3   COL     6   RATE     842.500    
 BOUNDARY     37   LAYER   1   ROW     3   COL     7   RATE     842.500    
 BOUNDARY     38   LAYER   1   ROW     3   COL     8   RATE     842.500    
 BOUNDARY     39   LAYER   1   ROW     3   COL     9   RATE     842.500    
 BOUNDARY     40   LAYER   1   ROW     3   COL    10   RATE     842.500    
 BOUNDARY     41   LAYER   1   ROW     3   COL    11   RATE     842.500    
 BOUNDARY     42   LAYER   1   ROW     3   COL    12   RATE     842.500    
 BOUNDARY     43   LAYER   1   ROW     3   COL    13   RATE     842.500    
 BOUNDARY     44   LAYER   1   ROW     3   COL    14   RATE     842.500    
 BOUNDARY     45   LAYER   1   ROW     3   COL    15   RATE     842.500    
 BOUNDARY     46   LAYER   1   ROW     4   COL     1   RATE     842.500    
 BOUNDARY     47   LAYER   1   ROW     4   COL     2   RATE     842.500    
 BOUNDARY     48   LAYER   1   ROW     4   COL     3   RATE     842.500    
 BOUNDARY     49   LAYER   1   ROW     4   COL     4   RATE     842.500    
 BOUNDARY     50   LAYER   1   ROW     4   COL     5   RATE     842.500    
 BOUNDARY     51   LAYER   1   ROW     4   COL     6   RATE     842.500    
 BOUNDARY     52   LAYER   1   ROW     4   COL     7   RATE     842.500    
 BOUNDARY     53   LAYER   1   ROW     4   COL     8   RATE     842.500    
 BOUNDARY     54   LAYER   1   ROW     4   COL     9   RATE     842.500    
 BOUNDARY     55   LAYER   1   ROW     4   COL    10   RATE     842.500    
 BOUNDARY     56   LAYER   1   ROW     4   COL    11   RATE     842.500    
 BOUNDARY     57   LAYER   1   ROW     4   COL    12   RATE     842.500    
 BOUNDARY     58   LAYER   1   ROW     4   COL    13   RATE     842.500    
 BOUNDARY     59   LAYER   1   ROW     4   COL    14   RATE     842.500    
 BOUNDARY     60   LAYER   1   ROW     4   COL    15   RATE     842.500    
 BOUNDARY     61   LAYER   1   ROW     5   COL     1   RATE     842.500    
 BOUNDARY     62   LAYER   1   ROW     5   COL     2   RATE     842.500    
 BOUNDARY     63   LAYER   1   ROW     5   COL     3   RATE     842.500    
 BOUNDARY     64   LAYER   1   ROW     5   COL     4   RATE     842.500    
 BOUNDARY     65   LAYER   1   ROW     5   COL     5   RATE     842.500    
 BOUNDARY     66   LAYER   1   ROW     5   COL     6   RATE     842.500    
 BOUNDARY     67   LAYER   1   ROW     5   COL     7   RATE     842.500    
 BOUNDARY     68   LAYER   1   ROW     5   COL     8   RATE     842.500    
 BOUNDARY     69   LAYER   1   ROW     5   COL     9   RATE     842.500    
 BOUNDARY     70   LAYER   1   ROW     5   COL    10   RATE     842.500    
 BOUNDARY     71   LAYER   1   ROW     5   COL    11   RATE     842.500    
 BOUNDARY     72   LAYER   1   ROW     5   COL    12   RATE     842.500    
 BOUNDARY     73   LAYER   1   ROW     5   COL    13   RATE     842.500    
 BOUNDARY     74   LAYER   1   ROW     5   COL    14   RATE     842.500    
 BOUNDARY     75   LAYER   1   ROW     5   COL    15   RATE     842.500    
 BOUNDARY     76   LAYER   1   ROW     6   COL     1   RATE     842.500    
 BOUNDARY     77   LAYER   1   ROW     6   COL     2   RATE     842.500    
 BOUNDARY     78   LAYER   1   ROW     6   COL     3   RATE     842.500    
 BOUNDARY     79   LAYER   1   ROW     6   COL     4   RATE     842.500    
 BOUNDARY     80   LAYER   1   ROW     6   COL     5   RATE     842.500    
 BOUNDARY     81   LAYER   1   ROW     6   COL     6   RATE     842.500    
 BOUNDARY     82   LAYER   1   ROW     6   COL     7   RATE     842.500    
 BOUNDARY     83   LAYER   1   ROW     6   COL     8   RATE     842.500    
 BOUNDARY     84   LAYER   1   ROW     6   COL     9   RATE     842.500    
 BOUNDARY     85   LAYER   1   ROW     6   COL    10   RATE     842.500    
 BOUNDARY     86   LAYER   1   ROW     6   COL    11   RATE     842.500    
 BOUNDARY     87   LAYER   1   ROW     6   COL    12   RATE     842.500    
 BOUNDARY     88   LAYER   1   ROW     6   COL    13   RATE     842.500    
 BOUNDARY     89   LAYER   1   ROW     6   COL    14   RATE     842.500    
 BOUNDARY     90   LAYER   1   ROW     6   COL    15   RATE     842.500    
 BOUNDARY     91   LAYER   1   ROW     7   COL     1   RATE     842.500    
 BOUNDARY     92   LAYER   1   ROW     7   COL     2   RATE     842.500    
 BOUNDARY     93   LAYER   1   ROW     7   COL     3   RATE     842.500    
 BOUNDARY     94   LAYER   1   ROW     7   COL     4   RATE     842.500    
 BOUNDARY     95   LAYER   1   ROW     7   COL     5   RATE     842.500    
 BOUNDARY     96   LAYER   1   ROW     7   COL     6   RATE     842.500    
 BOUNDARY     97   LAYER   1   ROW     7   COL     7   RATE     842.500    
 BOUNDARY     98   LAYER   1   ROW     7   COL     8   RATE     842.500    
 BOUNDARY     99   LAYER   1   ROW     7   COL     9   RATE     842.500    
 BOUNDARY    100   LAYER   1   ROW     7   COL    10   RATE     842.500    
 BOUNDARY    101   LAYER   1   ROW     7   COL    11   RATE     842.500    
 BOUNDARY    102   LAYER   1   ROW     7   COL    12   RATE     842.500    
 BOUNDARY    103   LAYER   1   ROW     7   COL    13   RATE     842.500    
 BOUNDARY    104   LAYER   1   ROW     7   COL    14   RATE     842.500    
 BOUNDARY    105   LAYER   1   ROW     7   COL    15   RATE     842.500    
 BOUNDARY    106   LAYER   1   ROW     8   COL     1   RATE     842.500    
 BOUNDARY    107   LAYER   1   ROW     8   COL     2   RATE     842.500    
 BOUNDARY    108   LAYER   1   ROW     8   COL     3   RATE     842.500    
 BOUNDARY    109   LAYER   1   ROW     8   COL     4   RATE     842.500    
 BOUNDARY    110   LAYER   1   ROW     8   COL     5   RATE     842.500    
 BOUNDARY    111   LAYER   1   ROW     8   COL     6   RATE     842.500    
 BOUNDARY    112   LAYER   1   ROW     8   COL     7   RATE     842.500    
 BOUNDARY    113   LAYER   1   ROW     8   COL     8   RATE     842.500    
 BOUNDARY    114   LAYER   1   ROW     8   COL     9   RATE     842.500    
 BOUNDARY    115   LAYER   1   ROW     8   COL    10   RATE     842.500    
 BOUNDARY    116   LAYER   1   ROW     8   COL    11   RATE     842.500    
 BOUNDARY    117   LAYER   1   ROW     8   COL    12   RATE     842.500    
 BOUNDARY    118   LAYER   1   ROW     8   COL    13   RATE     842.500    
 BOUNDARY    119   LAYER   1   ROW     8   COL    14   RATE     842.500    
 BOUNDARY    120   LAYER   1   ROW     8   COL    15   RATE     842.500    
 BOUNDARY    121   LAYER   1   ROW     9   COL     1   RATE     842.500    
 BOUNDARY    122   LAYER   1   ROW     9   COL     2   RATE     842.500    
 BOUNDARY    123   LAYER   1   ROW     9   COL     3   RATE     842.500    
 BOUNDARY    124   LAYER   1   ROW     9   COL     4   RATE     842.500    
 BOUNDARY    125   LAYER   1   ROW     9   COL     5   RATE     842.500    
 BOUNDARY    126   LAYER   1   ROW     9   COL     6   RATE     842.500    
 BOUNDARY    127   LAYER   1   ROW     9   COL     7   RATE     842.500    
 BOUNDARY    128   LAYER   1   ROW     9   COL     8   RATE     842.500    
 BOUNDARY    129   LAYER   1   ROW     9   COL     9   RATE     842.500    
 BOUNDARY    130   LAYER   1   ROW     9   COL    10   RATE     842.500    
 BOUNDARY    131   LAYER   1   ROW     9   COL    11   RATE     842.500    
 BOUNDARY    132   LAYER   1   ROW     9   COL    12   RATE     842.500    
 BOUNDARY    133   LAYER   1   ROW     9   COL    13   RATE     842.500    
 BOUNDARY    134   LAYER   1   ROW     9   COL    14   RATE     842.500    
 BOUNDARY    135   LAYER   1   ROW     9   COL    15   RATE     842.500    
 BOUNDARY    136   LAYER   1   ROW    10   COL     1   RATE     842.500    
 BOUNDARY    137   LAYER   1   ROW    10   COL     2   RATE     842.500    
 BOUNDARY    138   LAYER   1   ROW    10   COL     3   RATE     842.500    
 BOUNDARY    139   LAYER   1   ROW    10   COL     4   RATE     842.500    
 BOUNDARY    140   LAYER   1   ROW    10   COL     5   RATE     842.500    
 BOUNDARY    141   LAYER   1   ROW    10   COL     6   RATE     842.500    
 BOUNDARY    142   LAYER   1   ROW    10   COL     7   RATE     842.500    
 BOUNDARY    143   LAYER   1   ROW    10   COL     8   RATE     842.500    
 BOUNDARY    144   LAYER   1   ROW    10   COL     9   RATE     842.500    
 BOUNDARY    145   LAYER   1   ROW    10   COL    10   RATE     842.500    
 BOUNDARY    146   LAYER   1   ROW    10   COL    11   RATE     842.500    
 BOUNDARY    147   LAYER   1   ROW    10   COL    12   RATE     842.500    
 BOUNDARY    148   LAYER   1   ROW    10   COL    13   RATE     842.500    
 BOUNDARY    149   LAYER   1   ROW    10   COL    14   RATE     842.500    
 BOUNDARY    150   LAYER   1   ROW    10   COL    15   RATE     842.500    
 UBDSV4 SAVING ET SEGS          ON UNIT   1016 AT TIME STEP     10, STRESS PERIOD      6

 ET SEGS            PERIOD  6   STEP 10
 BOUNDARY      1   LAYER   1   ROW     1   COL     1   RATE    -3.64211    
 BOUNDARY      2   LAYER   1   ROW     1   COL     2   RATE    -11.6975    
 BOUNDARY      3   LAYER   1   ROW     1   COL     3   RATE    -75.2300    
 BOUNDARY      4   LAYER   1   ROW     1   COL     4   RATE   -100.0000    
 BOUNDARY      5   LAYER   1   ROW     1   COL     5   RATE   -100.0000    
 BOUNDARY      6   LAYER   1   ROW     1   COL     6   RATE   -100.0000    
 BOUNDARY      7   LAYER   1   ROW     1   COL     7   RATE   -100.0000    
 BOUNDARY      8   LAYER   1   ROW     1   COL     8   RATE   -100.0000    
 BOUNDARY      9   LAYER   1   ROW     1   COL     9   RATE   -100.0000    
 BOUNDARY     10   LAYER   1   ROW     1   COL    10   RATE   -100.0000    
 BOUNDARY     11   LAYER   1   ROW     1   COL    11   RATE   -100.0000    
 BOUNDARY     12   LAYER   1   ROW     1   COL    12   RATE    -21.9633    
 BOUNDARY     13   LAYER   1   ROW     1   COL    13   RATE   -0.647785    
 BOUNDARY     14   LAYER   1   ROW     1   COL    14   RATE     0.00000    
 BOUNDARY     15   LAYER   1   ROW     1   COL    15   RATE     0.00000    
 BOUNDARY     16   LAYER   1   ROW     2   COL     1   RATE     0.00000    
 BOUNDARY     17   LAYER   1   ROW     2   COL     2   RATE    -5.96043    
 BOUNDARY     18   LAYER   1   ROW     2   COL     3   RATE    -47.1167    
 BOUNDARY     19   LAYER   1   ROW     2   COL     4   RATE   -100.0000    
 BOUNDARY     20   LAYER   1   ROW     2   COL     5   RATE   -100.0000    
 BOUNDARY     21   LAYER   1   ROW     2   COL     6   RATE   -100.0000    
 BOUNDARY     22   LAYER   1   ROW     2   COL     7   RATE   -100.0000    
 BOUNDARY     23   LAYER   1   ROW     2   COL     8   RATE   -100.0000    
 BOUNDARY     24   LAYER   1   ROW     2   COL     9   RATE   -100.0000    
 BOUNDARY     25   LAYER   1   ROW     2   COL    10   RATE   -100.0000    
 BOUNDARY     26   LAYER   1   ROW     2   COL    11   RATE   -100.0000    
 BOUNDARY     27   LAYER   1   ROW     2   COL    12   RATE    -23.7071    
 BOUNDARY     28   LAYER   1   ROW     2   COL    13   RATE    -1.63379    
 BOUNDARY     29   LAYER   1   ROW     2   COL    14   RATE     0.00000    
 BOUNDARY     30   LAYER   1   ROW     2   COL    15   RATE     0.00000    
 BOUNDARY     31   LAYER   1   ROW     3   COL     1   RATE     0.00000    
 BOUNDARY     32   LAYER   1   ROW     3   COL     2   RATE     0.00000    
 BOUNDARY     33   LAYER   1   ROW     3   COL     3   RATE    -27.2807    
 BOUNDARY     34   LAYER   1   ROW     3   COL     4   RATE   -100.0000    
 BOUNDARY     35   LAYER   1   ROW     3   COL     5   RATE   -100.0000    
 BOUNDARY     36   LAYER   1   ROW     3   COL     6   RATE   -100.0000    
 BOUNDARY     37   LAYER   1   ROW     3   COL     7   RATE   -100.0000    
 BOUNDARY     38   LAYER   1   ROW     3   COL     8   RATE   -100.0000    
 BOUNDARY     39   LAYER   1   ROW     3   COL     9   RATE   -100.0000    
 BOUNDARY     40   LAYER   1   ROW     3   COL    10   RATE   -100.0000    
 BOUNDARY     41   LAYER   1   ROW     3   COL    11   RATE   -100.0000    
 BOUNDARY     42   LAYER   1   ROW     3   COL    12   RATE    -26.6434    
 BOUNDARY     43   LAYER   1   ROW     3   COL    13   RATE    -3.42845    
 BOUNDARY     44   LAYER   1   ROW     3   COL    14   RATE     0.00000    
 BOUNDARY     45   LAYER   1   ROW     3   COL    15   RATE     0.00000    
 BOUNDARY     46   LAYER   1   ROW     4   COL     1   RATE     0.00000    
 BOUNDARY     47   LAYER   1   ROW     4   COL     2   RATE    -4.44798    
 BOUNDARY     48   LAYER   1   ROW     4   COL     3   RATE    -36.2091    
 BOUNDARY     49   LAYER   1   ROW     4   COL     4   RATE   -100.0000    
 BOUNDARY     50   LAYER   1   ROW     4   COL     5   RATE   -100.0000    
 BOUNDARY     51   LAYER   1   ROW     4   COL     6   RATE   -100.0000    
 BOUNDARY     52   LAYER   1   ROW     4   COL     7   RATE   -100.0000    
 BOUNDARY     53   LAYER   1   ROW     4   COL     8   RATE   -100.0000    
 BOUNDARY     54   LAYER   1   ROW     4   COL     9   RATE   -100.0000    
 BOUNDARY     55   LAYER   1   ROW     4   COL    10   RATE   -100.0000    
 BOUNDARY     56   LAYER   1   ROW     4   COL    11   RATE   -100.0000    
 BOUNDARY     57   LAYER   1   ROW     4   COL    12   RATE    -29.4221    
 BOUNDARY     58   LAYER   1   ROW     4   COL    13   RATE    -4.87564    
 BOUNDARY     59   LAYER   1   ROW     4   COL    14   RATE     0.00000    
 BOUNDARY     60   LAYER   1   ROW     4   COL    15   RATE     0.00000    
 BOUNDARY     61   LAYER   1   ROW     5   COL     1   RATE     0.00000    
 BOUNDARY     62   LAYER   1   ROW     5   COL     2   RATE    -7.44172    
 BOUNDARY     63   LAYER   1   ROW     5   COL     3   RATE    -56.8453    
 BOUNDARY     64   LAYER   1   ROW     5   COL     4   RATE   -100.0000    
 BOUNDARY     65   LAYER   1   ROW     5   COL     5   RATE   -100.0000    
 BOUNDARY     66   LAYER   1   ROW     5   COL     6   RATE   -100.0000    
 BOUNDARY     67   LAYER   1   ROW     5   COL     7   RATE   -100.0000    
 BOUNDARY     68   LAYER   1   ROW     5   COL     8   RATE   -100.0000    
 BOUNDARY     69   LAYER   1   ROW     5   COL     9   RATE   -100.0000    
 BOUNDARY     70   LAYER   1   ROW     5   COL    10   RATE   -100.0000    
 BOUNDARY     71   LAYER   1   ROW     5   COL    11   RATE   -100.0000    
 BOUNDARY     72   LAYER   1   ROW     5   COL    12   RATE    -36.9034    
 BOUNDARY     73   LAYER   1   ROW     5   COL    13   RATE    -5.75201    
 BOUNDARY     74   LAYER   1   ROW     5   COL    14   RATE     0.00000    
 BOUNDARY     75   LAYER   1   ROW     5   COL    15   RATE     0.00000    
 BOUNDARY     76   LAYER   1   ROW     6   COL     1   RATE     0.00000    
 BOUNDARY     77   LAYER   1   ROW     6   COL     2   RATE    -5.97443    
 BOUNDARY     78   LAYER   1   ROW     6   COL     3   RATE    -60.4707    
 BOUNDARY     79   LAYER   1   ROW     6   COL     4   RATE   -100.0000    
 BOUNDARY     80   LAYER   1   ROW     6   COL     5   RATE   -100.0000    
 BOUNDARY     81   LAYER   1   ROW     6   COL     6   RATE   -100.0000    
 BOUNDARY     82   LAYER   1   ROW     6   COL     7   RATE   -100.0000    
 BOUNDARY     83   LAYER   1   ROW     6   COL     8   RATE   -100.0000    
 BOUNDARY     84   LAYER   1   ROW     6   COL     9   RATE   -100.0000    
 BOUNDARY     85   LAYER   1   ROW     6   COL    10   RATE   -100.0000    
 BOUNDARY     86   LAYER   1   ROW     6   COL    11   RATE   -100.0000    
 BOUNDARY     87   LAYER   1   ROW     6   COL    12   RATE    -40.2101    
 BOUNDARY     88   LAYER   1   ROW     6   COL    13   RATE    -5.70058    
 BOUNDARY     89   LAYER   1   ROW     6   COL    14   RATE     0.00000    
 BOUNDARY     90   LAYER   1   ROW     6   COL    15   RATE     0.00000    
 BOUNDARY     91   LAYER   1   ROW     7   COL     1   RATE     0.00000    
 BOUNDARY     92   LAYER   1   ROW     7   COL     2   RATE    -2.38038    
 BOUNDARY     93   LAYER   1   ROW     7   COL     3   RATE    -67.1263    
 BOUNDARY     94   LAYER   1   ROW     7   COL     4   RATE   -100.0000    
 BOUNDARY     95   LAYER   1   ROW     7   COL     5   RATE   -100.0000    
 BOUNDARY     96   LAYER   1   ROW     7   COL     6   RATE   -100.0000    
 BOUNDARY     97   LAYER   1   ROW     7   COL     7   RATE   -100.0000    
 BOUNDARY     98   LAYER   1   ROW     7   COL     8   RATE   -100.0000    
 BOUNDARY     99   LAYER   1   ROW     7   COL     9   RATE   -100.0000    
 BOUNDARY    100   LAYER   1   ROW     7   COL    10   RATE   -100.0000    
 BOUNDARY    101   LAYER   1   ROW     7   COL    11   RATE   -100.0000    
 BOUNDARY    102   LAYER   1   ROW     7   COL    12   RATE    -39.4960    
 BOUNDARY    103   LAYER   1   ROW     7   COL    13   RATE    -4.98965    
 BOUNDARY    104   LAYER   1   ROW     7   COL    14   RATE     0.00000    
 BOUNDARY    105   LAYER   1   ROW     7   COL    15   RATE     0.00000    
 BOUNDARY    106   LAYER   1   ROW     8   COL     1   RATE     0.00000    
 BOUNDARY    107   LAYER   1   ROW     8   COL     2   RATE    -16.1294    
 BOUNDARY    108   LAYER   1   ROW     8   COL     3   RATE   -100.0000    
 BOUNDARY    109   LAYER   1   ROW     8   COL     4   RATE   -100.0000    
 BOUNDARY    110   LAYER   1   ROW     8   COL     5   RATE   -100.0000    
 BOUNDARY    111   LAYER   1   ROW     8   COL     6   RATE   -100.0000    
 BOUNDARY    112   LAYER   1   ROW     8   COL     7   RATE   -100.0000    
 BOUNDARY    113   LAYER   1   ROW     8   COL     8   RATE   -100.0000    
 BOUNDARY    114   LAYER   1   ROW     8   COL     9   RATE   -100.0000    
 BOUNDARY    115   LAYER   1   ROW     8   COL    10   RATE   -100.0000    
 BOUNDARY    116   LAYER   1   ROW     8   COL    11   RATE   -100.0000    
 BOUNDARY    117   LAYER   1   ROW     8   COL    12   RATE    -41.7427    
 BOUNDARY    118   LAYER   1   ROW     8   COL    13   RATE    -5.03321    
 BOUNDARY    119   LAYER   1   ROW     8   COL    14   RATE     0.00000    
 BOUNDARY    120   LAYER   1   ROW     8   COL    15   RATE     0.00000    
 BOUNDARY    121   LAYER   1   ROW     9   COL     1   RATE    -23.7622    
 BOUNDARY    122   LAYER   1   ROW     9   COL     2   RATE    -86.5683    
 BOUNDARY    123   LAYER   1   ROW     9   COL     3   RATE   -100.0000    
 BOUNDARY    124   LAYER   1   ROW     9   COL     4   RATE   -100.0000    
 BOUNDARY    125   LAYER   1   ROW     9   COL     5   RATE   -100.0000    
 BOUNDARY    126   LAYER   1   ROW     9   COL     6   RATE   -100.0000    
 BOUNDARY    127   LAYER   1   ROW     9   COL     7   RATE   -100.0000    
 BOUNDARY    128   LAYER   1   ROW     9   COL     8   RATE   -100.0000    
 BOUNDARY    129   LAYER   1   ROW     9   COL     9   RATE   -100.0000    
 BOUNDARY    130   LAYER   1   ROW     9   COL    10   RATE   -100.0000    
 BOUNDARY    131   LAYER   1   ROW     9   COL    11   RATE   -100.0000    
 BOUNDARY    132   LAYER   1   ROW     9   COL    12   RATE    -47.6927    
 BOUNDARY    133   LAYER   1   ROW     9   COL    13   RATE    -5.90430    
 BOUNDARY    134   LAYER   1   ROW     9   COL    14   RATE     0.00000    
 BOUNDARY    135   LAYER   1   ROW     9   COL    15   RATE     0.00000    
 BOUNDARY    136   LAYER   1   ROW    10   COL     1   RATE    -94.7212    
 BOUNDARY    137   LAYER   1   ROW    10   COL     2   RATE   -100.0000    
 BOUNDARY    138   LAYER   1   ROW    10   COL     3   RATE   -100.0000    
 BOUNDARY    139   LAYER   1   ROW    10   COL     4   RATE   -100.0000    
 BOUNDARY    140   LAYER   1   ROW    10   COL     5   RATE   -100.0000    
 BOUNDARY    141   LAYER   1   ROW    10   COL     6   RATE   -100.0000    
 BOUNDARY    142   LAYER   1   ROW    10   COL     7   RATE   -100.0000    
 BOUNDARY    143   LAYER   1   ROW    10   COL     8   RATE   -100.0000    
 BOUNDARY    144   LAYER   1   ROW    10   COL     9   RATE   -100.0000    
 BOUNDARY    145   LAYER   1   ROW    10   COL    10   RATE   -100.0000    
 BOUNDARY    146   LAYER   1   ROW    10   COL    11   RATE   -100.0000    
 BOUNDARY    147   LAYER   1   ROW    10   COL    12   RATE    -51.9482    
 BOUNDARY    148   LAYER   1   ROW    10   COL    13   RATE    -6.45926    
 BOUNDARY    149   LAYER   1   ROW    10   COL    14   RATE     0.00000    
 BOUNDARY    150   LAYER   1   ROW    10   COL    15   RATE     0.00000    
1
  HEAD             IN LAYER   1 AT END OF TIME STEP  10 IN STRESS PERIOD    6
  ---------------------------------------------------------------------------

           1       2       3       4       5       6       7       8       9      10      11      12      13      14      15
 ...........................................................................................................................
   1   131.82  135.25  139.29  142.80  145.46  147.20  147.99  147.84  146.72  144.59  141.34  136.79  130.32  120.93  106.03
   2   126.47  132.98  138.49  142.53  145.39  147.20  148.02  147.88  146.78  144.68  141.49  137.06  130.82  121.83  107.15
   3   109.98  129.50  137.59  142.29  145.35  147.23  148.09  147.97  146.89  144.83  141.74  137.50  131.71  123.98  113.92
   4   125.21  132.22  138.18  142.48  145.48  147.35  148.21  148.09  147.04  145.02  142.00  137.91  132.44  125.23  115.37
   5   129.01  133.72  138.77  142.80  145.71  147.54  148.37  148.25  147.19  145.19  142.21  138.20  132.88  126.06  117.61
   6   125.92  132.99  138.87  143.09  146.00  147.79  148.58  148.42  147.35  145.34  142.35  138.29  132.85  125.73  116.96
   7   111.61  131.19  139.06  143.54  146.39  148.09  148.80  148.60  147.50  145.46  142.43  138.27  132.49  124.17  110.31
   8   129.86  135.92  140.86  144.45  146.92  148.43  149.04  148.78  147.63  145.57  142.52  138.34  132.52  124.10  110.16
   9   137.06  139.62  142.68  145.39  147.44  148.74  149.24  148.91  147.74  145.66  142.62  138.51  132.95  125.53  115.90
  10   139.85  141.43  143.71  145.95  147.75  148.92  149.35  148.99  147.80  145.72  142.69  138.63  133.23  126.15  116.79
1
  HEAD             IN LAYER   2 AT END OF TIME STEP  10 IN STRESS PERIOD    6
  ---------------------------------------------------------------------------

           1       2       3       4       5       6       7       8       9      10      11      12      13      14      15
 ...........................................................................................................................
   1   132.70  134.97  138.14  141.21  143.68  145.34  146.10  145.92  144.76  142.60  139.38  135.08  129.71  123.66  118.36
   2   130.90  133.97  137.70  141.04  143.64  145.35  146.13  145.96  144.82  142.69  139.52  135.31  130.11  124.31  119.25
   3   128.27  132.84  137.27  140.91  143.63  145.39  146.20  146.05  144.94  142.84  139.76  135.70  130.77  125.47  121.16
   4   130.23  133.53  137.52  141.04  143.74  145.51  146.32  146.18  145.08  143.03  140.02  136.09  131.38  126.39  122.39
   5   131.44  134.24  137.93  141.32  143.96  145.69  146.49  146.33  145.24  143.20  140.23  136.37  131.76  126.93  123.16
   6   131.10  134.36  138.25  141.67  144.26  145.94  146.69  146.51  145.40  143.36  140.38  136.50  131.84  126.89  122.94
   7   130.13  134.58  138.78  142.17  144.66  146.24  146.91  146.69  145.55  143.49  140.49  136.55  131.74  126.43  121.80
   8   134.02  136.78  140.06  142.95  145.15  146.57  147.14  146.86  145.68  143.60  140.59  136.63  131.81  126.46  121.78
   9   137.26  138.97  141.38  143.73  145.62  146.86  147.34  146.99  145.79  143.69  140.68  136.77  132.06  127.01  122.91
  10   138.94  140.21  142.17  144.20  145.91  147.04  147.45  147.07  145.85  143.75  140.75  136.87  132.25  127.36  123.46

 HEAD WILL BE SAVED ON UNIT 1017 AT END OF TIME STEP   10, STRESS PERIOD    6



         TIME SUMMARY AT END OF TIME STEP   10 IN STRESS PERIOD    6
                    SECONDS     MINUTES      HOURS       DAYS        YEARS
                    -----------------------------------------------------------
   TIME STEP LENGTH  86400.      1440.0      24.000     1.00000     2.73785E-03
 STRESS PERIOD TIME 8.64000E+05  14400.      240.00     10.0000     2.73785E-02
         TOTAL TIME 1.13184E+07 1.88640E+05  3144.0      131.00     0.35866    
RIV   no.    1 value from time series:   101.00     for time:  131.0     to  132.0    
RIV   no.    2 value from time series:   101.00     for time:  131.0     to  132.0    
RIV   no.    3 value from time series:   111.50     for time:  131.0     to  132.0    
RIV   no.    4 value from time series:   111.50     for time:  131.0     to  132.0    
RIV   no.    5 value from time series:   115.10     for time:  131.0     to  132.0    
RIV   no.    6 value from time series:   115.10     for time:  131.0     to  132.0    
RIV   no.    7 value from time series:   104.00     for time:  131.0     to  132.0    
RIV   no.    8 value from time series:   104.00     for time:  131.0     to  132.0    
RIV   no.    9 value from time series:   113.50     for time:  131.0     to  132.0    
RIV   no.   10 value from time series:   113.50     for time:  131.0     to  132.0    
RIV   no.    1 value from time series:   101.00     for time:  131.0     to  132.0    
RIV   no.    2 value from time series:   101.00     for time:  131.0     to  132.0    
RIV   no.    3 value from time series:   111.50     for time:  131.0     to  132.0    
RIV   no.    4 value from time series:   111.50     for time:  131.0     to  132.0    
RIV   no.    5 value from time series:   115.10     for time:  131.0     to  132.0    
RIV   no.    6 value from time series:   115.10     for time:  131.0     to  132.0    
RIV   no.    7 value from time series:   104.00     for time:  131.0     to  132.0    
RIV   no.    8 value from time series:   104.00     for time:  131.0     to  132.0    
RIV   no.    9 value from time series:   113.50     for time:  131.0     to  132.0    
RIV   no.   10 value from time series:   113.50     for time:  131.0     to  132.0    

 NO OUTPUT CONTROL FOR STRESS PERIOD    6   TIME STEP   11
RIV   no.    1 value from time series:   101.00     for time:  132.0     to  133.0    
RIV   no.    2 value from time series:   101.00     for time:  132.0     to  133.0    
RIV   no.    3 value from time series:   111.50     for time:  132.0     to  133.0    
RIV   no.    4 value from time series:   111.50     for time:  132.0     to  133.0    
RIV   no.    5 value from time series:   115.10     for time:  132.0     to  133.0    
RIV   no.    6 value from time series:   115.10     for time:  132.0     to  133.0    
RIV   no.    7 value from time series:   104.00     for time:  132.0     to  133.0    
RIV   no.    8 value from time series:   104.00     for time:  132.0     to  133.0    
RIV   no.    9 value from time series:   113.50     for time:  132.0     to  133.0    
RIV   no.   10 value from time series:   113.50     for time:  132.0     to  133.0    
RIV   no.    1 value from time series:   101.00     for time:  132.0     to  133.0    
RIV   no.    2 value from time series:   101.00     for time:  132.0     to  133.0    
RIV   no.    3 value from time series:   111.50     for time:  132.0     to  133.0    
RIV   no.    4 value from time series:   111.50     for time:  132.0     to  133.0    
RIV   no.    5 value from time series:   115.10     for time:  132.0     to  133.0    
RIV   no.    6 value from time series:   115.10     for time:  132.0     to  133.0    
RIV   no.    7 value from time series:   104.00     for time:  132.0     to  133.0    
RIV   no.    8 value from time series:   104.00     for time:  132.0     to  133.0    
RIV   no.    9 value from time series:   113.50     for time:  132.0     to  133.0    
RIV   no.   10 value from time series:   113.50     for time:  132.0     to  133.0    

 NO OUTPUT CONTROL FOR STRESS PERIOD    6   TIME STEP   12
RIV   no.    1 value from time series:   101.00     for time:  133.0     to  134.0    
RIV   no.    2 value from time series:   101.00     for time:  133.0     to  134.0    
RIV   no.    3 value from time series:   111.50     for time:  133.0     to  134.0    
RIV   no.    4 value from time series:   111.50     for time:  133.0     to  134.0    
RIV   no.    5 value from time series:   115.10     for time:  133.0     to  134.0    
RIV   no.    6 value from time series:   115.10     for time:  133.0     to  134.0    
RIV   no.    7 value from time series:   104.00     for time:  133.0     to  134.0    
RIV   no.    8 value from time series:   104.00     for time:  133.0     to  134.0    
RIV   no.    9 value from time series:   113.50     for time:  133.0     to  134.0    
RIV   no.   10 value from time series:   113.50     for time:  133.0     to  134.0    
RIV   no.    1 value from time series:   101.00     for time:  133.0     to  134.0    
RIV   no.    2 value from time series:   101.00     for time:  133.0     to  134.0    
RIV   no.    3 value from time series:   111.50     for time:  133.0     to  134.0    
RIV   no.    4 value from time series:   111.50     for time:  133.0     to  134.0    
RIV   no.    5 value from time series:   115.10     for time:  133.0     to  134.0    
RIV   no.    6 value from time series:   115.10     for time:  133.0     to  134.0    
RIV   no.    7 value from time series:   104.00     for time:  133.0     to  134.0    
RIV   no.    8 value from time series:   104.00     for time:  133.0     to  134.0    
RIV   no.    9 value from time series:   113.50     for time:  133.0     to  134.0    
RIV   no.   10 value from time series:   113.50     for time:  133.0     to  134.0    

 NO OUTPUT CONTROL FOR STRESS PERIOD    6   TIME STEP   13
RIV   no.    1 value from time series:   101.00     for time:  134.0     to  135.0    
RIV   no.    2 value from time series:   101.00     for time:  134.0     to  135.0    
RIV   no.    3 value from time series:   111.50     for time:  134.0     to  135.0    
RIV   no.    4 value from time series:   111.50     for time:  134.0     to  135.0    
RIV   no.    5 value from time series:   115.10     for time:  134.0     to  135.0    
RIV   no.    6 value from time series:   115.10     for time:  134.0     to  135.0    
RIV   no.    7 value from time series:   104.00     for time:  134.0     to  135.0    
RIV   no.    8 value from time series:   104.00     for time:  134.0     to  135.0    
RIV   no.    9 value from time series:   113.50     for time:  134.0     to  135.0    
RIV   no.   10 value from time series:   113.50     for time:  134.0     to  135.0    
RIV   no.    1 value from time series:   101.00     for time:  134.0     to  135.0    
RIV   no.    2 value from time series:   101.00     for time:  134.0     to  135.0    
RIV   no.    3 value from time series:   111.50     for time:  134.0     to  135.0    
RIV   no.    4 value from time series:   111.50     for time:  134.0     to  135.0    
RIV   no.    5 value from time series:   115.10     for time:  134.0     to  135.0    
RIV   no.    6 value from time series:   115.10     for time:  134.0     to  135.0    
RIV   no.    7 value from time series:   104.00     for time:  134.0     to  135.0    
RIV   no.    8 value from time series:   104.00     for time:  134.0     to  135.0    
RIV   no.    9 value from time series:   113.50     for time:  134.0     to  135.0    
RIV   no.   10 value from time series:   113.50     for time:  134.0     to  135.0    

 NO OUTPUT CONTROL FOR STRESS PERIOD    6   TIME STEP   14
RIV   no.    1 value from time series:   101.00     for time:  135.0     to  136.0    
RIV   no.    2 value from time series:   101.00     for time:  135.0     to  136.0    
RIV   no.    3 value from time series:   111.50     for time:  135.0     to  136.0    
RIV   no.    4 value from time series:   111.50     for time:  135.0     to  136.0    
RIV   no.    5 value from time series:   115.10     for time:  135.0     to  136.0    
RIV   no.    6 value from time series:   115.10     for time:  135.0     to  136.0    
RIV   no.    7 value from time series:   104.00     for time:  135.0     to  136.0    
RIV   no.    8 value from time series:   104.00     for time:  135.0     to  136.0    
RIV   no.    9 value from time series:   113.50     for time:  135.0     to  136.0    
RIV   no.   10 value from time series:   113.50     for time:  135.0     to  136.0    
RIV   no.    1 value from time series:   101.00     for time:  135.0     to  136.0    
RIV   no.    2 value from time series:   101.00     for time:  135.0     to  136.0    
RIV   no.    3 value from time series:   111.50     for time:  135.0     to  136.0    
RIV   no.    4 value from time series:   111.50     for time:  135.0     to  136.0    
RIV   no.    5 value from time series:   115.10     for time:  135.0     to  136.0    
RIV   no.    6 value from time series:   115.10     for time:  135.0     to  136.0    
RIV   no.    7 value from time series:   104.00     for time:  135.0     to  136.0    
RIV   no.    8 value from time series:   104.00     for time:  135.0     to  136.0    
RIV   no.    9 value from time series:   113.50     for time:  135.0     to  136.0    
RIV   no.   10 value from time series:   113.50     for time:  135.0     to  136.0    

 NO OUTPUT CONTROL FOR STRESS PERIOD    6   TIME STEP   15
RIV   no.    1 value from time series:   101.00     for time:  136.0     to  137.0    
RIV   no.    2 value from time series:   101.00     for time:  136.0     to  137.0    
RIV   no.    3 value from time series:   111.50     for time:  136.0     to  137.0    
RIV   no.    4 value from time series:   111.50     for time:  136.0     to  137.0    
RIV   no.    5 value from time series:   115.10     for time:  136.0     to  137.0    
RIV   no.    6 value from time series:   115.10     for time:  136.0     to  137.0    
RIV   no.    7 value from time series:   104.00     for time:  136.0     to  137.0    
RIV   no.    8 value from time series:   104.00     for time:  136.0     to  137.0    
RIV   no.    9 value from time series:   113.50     for time:  136.0     to  137.0    
RIV   no.   10 value from time series:   113.50     for time:  136.0     to  137.0    
RIV   no.    1 value from time series:   101.00     for time:  136.0     to  137.0    
RIV   no.    2 value from time series:   101.00     for time:  136.0     to  137.0    
RIV   no.    3 value from time series:   111.50     for time:  136.0     to  137.0    
RIV   no.    4 value from time series:   111.50     for time:  136.0     to  137.0    
RIV   no.    5 value from time series:   115.10     for time:  136.0     to  137.0    
RIV   no.    6 value from time series:   115.10     for time:  136.0     to  137.0    
RIV   no.    7 value from time series:   104.00     for time:  136.0     to  137.0    
RIV   no.    8 value from time series:   104.00     for time:  136.0     to  137.0    
RIV   no.    9 value from time series:   113.50     for time:  136.0     to  137.0    
RIV   no.   10 value from time series:   113.50     for time:  136.0     to  137.0    

 NO OUTPUT CONTROL FOR STRESS PERIOD    6   TIME STEP   16
RIV   no.    1 value from time series:   101.00     for time:  137.0     to  138.0    
RIV   no.    2 value from time series:   101.00     for time:  137.0     to  138.0    
RIV   no.    3 value from time series:   111.50     for time:  137.0     to  138.0    
RIV   no.    4 value from time series:   111.50     for time:  137.0     to  138.0    
RIV   no.    5 value from time series:   115.10     for time:  137.0     to  138.0    
RIV   no.    6 value from time series:   115.10     for time:  137.0     to  138.0    
RIV   no.    7 value from time series:   104.00     for time:  137.0     to  138.0    
RIV   no.    8 value from time series:   104.00     for time:  137.0     to  138.0    
RIV   no.    9 value from time series:   113.50     for time:  137.0     to  138.0    
RIV   no.   10 value from time series:   113.50     for time:  137.0     to  138.0    
RIV   no.    1 value from time series:   101.00     for time:  137.0     to  138.0    
RIV   no.    2 value from time series:   101.00     for time:  137.0     to  138.0    
RIV   no.    3 value from time series:   111.50     for time:  137.0     to  138.0    
RIV   no.    4 value from time series:   111.50     for time:  137.0     to  138.0    
RIV   no.    5 value from time series:   115.10     for time:  137.0     to  138.0    
RIV   no.    6 value from time series:   115.10     for time:  137.0     to  138.0    
RIV   no.    7 value from time series:   104.00     for time:  137.0     to  138.0    
RIV   no.    8 value from time series:   104.00     for time:  137.0     to  138.0    
RIV   no.    9 value from time series:   113.50     for time:  137.0     to  138.0    
RIV   no.   10 value from time series:   113.50     for time:  137.0     to  138.0    

 NO OUTPUT CONTROL FOR STRESS PERIOD    6   TIME STEP   17
RIV   no.    1 value from time series:   101.00     for time:  138.0     to  139.0    
RIV   no.    2 value from time series:   101.00     for time:  138.0     to  139.0    
RIV   no.    3 value from time series:   111.50     for time:  138.0     to  139.0    
RIV   no.    4 value from time series:   111.50     for time:  138.0     to  139.0    
RIV   no.    5 value from time series:   115.10     for time:  138.0     to  139.0    
RIV   no.    6 value from time series:   115.10     for time:  138.0     to  139.0    
RIV   no.    7 value from time series:   104.00     for time:  138.0     to  139.0    
RIV   no.    8 value from time series:   104.00     for time:  138.0     to  139.0    
RIV   no.    9 value from time series:   113.50     for time:  138.0     to  139.0    
RIV   no.   10 value from time series:   113.50     for time:  138.0     to  139.0    
RIV   no.    1 value from time series:   101.00     for time:  138.0     to  139.0    
RIV   no.    2 value from time series:   101.00     for time:  138.0     to  139.0    
RIV   no.    3 value from time series:   111.50     for time:  138.0     to  139.0    
RIV   no.    4 value from time series:   111.50     for time:  138.0     to  139.0    
RIV   no.    5 value from time series:   115.10     for time:  138.0     to  139.0    
RIV   no.    6 value from time series:   115.10     for time:  138.0     to  139.0    
RIV   no.    7 value from time series:   104.00     for time:  138.0     to  139.0    
RIV   no.    8 value from time series:   104.00     for time:  138.0     to  139.0    
RIV   no.    9 value from time series:   113.50     for time:  138.0     to  139.0    
RIV   no.   10 value from time series:   113.50     for time:  138.0     to  139.0    

 NO OUTPUT CONTROL FOR STRESS PERIOD    6   TIME STEP   18
RIV   no.    1 value from time series:   101.00     for time:  139.0     to  140.0    
RIV   no.    2 value from time series:   101.00     for time:  139.0     to  140.0    
RIV   no.    3 value from time series:   111.50     for time:  139.0     to  140.0    
RIV   no.    4 value from time series:   111.50     for time:  139.0     to  140.0    
RIV   no.    5 value from time series:   115.10     for time:  139.0     to  140.0    
RIV   no.    6 value from time series:   115.10     for time:  139.0     to  140.0    
RIV   no.    7 value from time series:   104.00     for time:  139.0     to  140.0    
RIV   no.    8 value from time series:   104.00     for time:  139.0     to  140.0    
RIV   no.    9 value from time series:   113.50     for time:  139.0     to  140.0    
RIV   no.   10 value from time series:   113.50     for time:  139.0     to  140.0    
RIV   no.    1 value from time series:   101.00     for time:  139.0     to  140.0    
RIV   no.    2 value from time series:   101.00     for time:  139.0     to  140.0    
RIV   no.    3 value from time series:   111.50     for time:  139.0     to  140.0    
RIV   no.    4 value from time series:   111.50     for time:  139.0     to  140.0    
RIV   no.    5 value from time series:   115.10     for time:  139.0     to  140.0    
RIV   no.    6 value from time series:   115.10     for time:  139.0     to  140.0    
RIV   no.    7 value from time series:   104.00     for time:  139.0     to  140.0    
RIV   no.    8 value from time series:   104.00     for time:  139.0     to  140.0    
RIV   no.    9 value from time series:   113.50     for time:  139.0     to  140.0    
RIV   no.   10 value from time series:   113.50     for time:  139.0     to  140.0    

 NO OUTPUT CONTROL FOR STRESS PERIOD    6   TIME STEP   19
RIV   no.    1 value from time series:   101.00     for time:  140.0     to  141.0    
RIV   no.    2 value from time series:   101.00     for time:  140.0     to  141.0    
RIV   no.    3 value from time series:   111.50     for time:  140.0     to  141.0    
RIV   no.    4 value from time series:   111.50     for time:  140.0     to  141.0    
RIV   no.    5 value from time series:   115.10     for time:  140.0     to  141.0    
RIV   no.    6 value from time series:   115.10     for time:  140.0     to  141.0    
RIV   no.    7 value from time series:   104.00     for time:  140.0     to  141.0    
RIV   no.    8 value from time series:   104.00     for time:  140.0     to  141.0    
RIV   no.    9 value from time series:   113.50     for time:  140.0     to  141.0    
RIV   no.   10 value from time series:   113.50     for time:  140.0     to  141.0    
RIV   no.    1 value from time series:   101.00     for time:  140.0     to  141.0    
RIV   no.    2 value from time series:   101.00     for time:  140.0     to  141.0    
RIV   no.    3 value from time series:   111.50     for time:  140.0     to  141.0    
RIV   no.    4 value from time series:   111.50     for time:  140.0     to  141.0    
RIV   no.    5 value from time series:   115.10     for time:  140.0     to  141.0    
RIV   no.    6 value from time series:   115.10     for time:  140.0     to  141.0    
RIV   no.    7 value from time series:   104.00     for time:  140.0     to  141.0    
RIV   no.    8 value from time series:   104.00     for time:  140.0     to  141.0    
RIV   no.    9 value from time series:   113.50     for time:  140.0     to  141.0    
RIV   no.   10 value from time series:   113.50     for time:  140.0     to  141.0    

 NO OUTPUT CONTROL FOR STRESS PERIOD    6   TIME STEP   20
RIV   no.    1 value from time series:   101.00     for time:  141.0     to  142.0    
RIV   no.    2 value from time series:   101.00     for time:  141.0     to  142.0    
RIV   no.    3 value from time series:   111.50     for time:  141.0     to  142.0    
RIV   no.    4 value from time series:   111.50     for time:  141.0     to  142.0    
RIV   no.    5 value from time series:   115.10     for time:  141.0     to  142.0    
RIV   no.    6 value from time series:   115.10     for time:  141.0     to  142.0    
RIV   no.    7 value from time series:   104.00     for time:  141.0     to  142.0    
RIV   no.    8 value from time series:   104.00     for time:  141.0     to  142.0    
RIV   no.    9 value from time series:   113.50     for time:  141.0     to  142.0    
RIV   no.   10 value from time series:   113.50     for time:  141.0     to  142.0    
RIV   no.    1 value from time series:   101.00     for time:  141.0     to  142.0    
RIV   no.    2 value from time series:   101.00     for time:  141.0     to  142.0    
RIV   no.    3 value from time series:   111.50     for time:  141.0     to  142.0    
RIV   no.    4 value from time series:   111.50     for time:  141.0     to  142.0    
RIV   no.    5 value from time series:   115.10     for time:  141.0     to  142.0    
RIV   no.    6 value from time series:   115.10     for time:  141.0     to  142.0    
RIV   no.    7 value from time series:   104.00     for time:  141.0     to  142.0    
RIV   no.    8 value from time series:   104.00     for time:  141.0     to  142.0    
RIV   no.    9 value from time series:   113.50     for time:  141.0     to  142.0    
RIV   no.   10 value from time series:   113.50     for time:  141.0     to  142.0    

 NO OUTPUT CONTROL FOR STRESS PERIOD    6   TIME STEP   21
RIV   no.    1 value from time series:   101.00     for time:  142.0     to  143.0    
RIV   no.    2 value from time series:   101.00     for time:  142.0     to  143.0    
RIV   no.    3 value from time series:   111.50     for time:  142.0     to  143.0    
RIV   no.    4 value from time series:   111.50     for time:  142.0     to  143.0    
RIV   no.    5 value from time series:   115.10     for time:  142.0     to  143.0    
RIV   no.    6 value from time series:   115.10     for time:  142.0     to  143.0    
RIV   no.    7 value from time series:   104.00     for time:  142.0     to  143.0    
RIV   no.    8 value from time series:   104.00     for time:  142.0     to  143.0    
RIV   no.    9 value from time series:   113.50     for time:  142.0     to  143.0    
RIV   no.   10 value from time series:   113.50     for time:  142.0     to  143.0    
RIV   no.    1 value from time series:   101.00     for time:  142.0     to  143.0    
RIV   no.    2 value from time series:   101.00     for time:  142.0     to  143.0    
RIV   no.    3 value from time series:   111.50     for time:  142.0     to  143.0    
RIV   no.    4 value from time series:   111.50     for time:  142.0     to  143.0    
RIV   no.    5 value from time series:   115.10     for time:  142.0     to  143.0    
RIV   no.    6 value from time series:   115.10     for time:  142.0     to  143.0    
RIV   no.    7 value from time series:   104.00     for time:  142.0     to  143.0    
RIV   no.    8 value from time series:   104.00     for time:  142.0     to  143.0    
RIV   no.    9 value from time series:   113.50     for time:  142.0     to  143.0    
RIV   no.   10 value from time series:   113.50     for time:  142.0     to  143.0    

 NO OUTPUT CONTROL FOR STRESS PERIOD    6   TIME STEP   22
RIV   no.    1 value from time series:   101.00     for time:  143.0     to  144.0    
RIV   no.    2 value from time series:   101.00     for time:  143.0     to  144.0    
RIV   no.    3 value from time series:   111.50     for time:  143.0     to  144.0    
RIV   no.    4 value from time series:   111.50     for time:  143.0     to  144.0    
RIV   no.    5 value from time series:   115.10     for time:  143.0     to  144.0    
RIV   no.    6 value from time series:   115.10     for time:  143.0     to  144.0    
RIV   no.    7 value from time series:   104.00     for time:  143.0     to  144.0    
RIV   no.    8 value from time series:   104.00     for time:  143.0     to  144.0    
RIV   no.    9 value from time series:   113.50     for time:  143.0     to  144.0    
RIV   no.   10 value from time series:   113.50     for time:  143.0     to  144.0    
RIV   no.    1 value from time series:   101.00     for time:  143.0     to  144.0    
RIV   no.    2 value from time series:   101.00     for time:  143.0     to  144.0    
RIV   no.    3 value from time series:   111.50     for time:  143.0     to  144.0    
RIV   no.    4 value from time series:   111.50     for time:  143.0     to  144.0    
RIV   no.    5 value from time series:   115.10     for time:  143.0     to  144.0    
RIV   no.    6 value from time series:   115.10     for time:  143.0     to  144.0    
RIV   no.    7 value from time series:   104.00     for time:  143.0     to  144.0    
RIV   no.    8 value from time series:   104.00     for time:  143.0     to  144.0    
RIV   no.    9 value from time series:   113.50     for time:  143.0     to  144.0    
RIV   no.   10 value from time series:   113.50     for time:  143.0     to  144.0    

 NO OUTPUT CONTROL FOR STRESS PERIOD    6   TIME STEP   23
RIV   no.    1 value from time series:   101.00     for time:  144.0     to  145.0    
RIV   no.    2 value from time series:   101.00     for time:  144.0     to  145.0    
RIV   no.    3 value from time series:   111.50     for time:  144.0     to  145.0    
RIV   no.    4 value from time series:   111.50     for time:  144.0     to  145.0    
RIV   no.    5 value from time series:   115.10     for time:  144.0     to  145.0    
RIV   no.    6 value from time series:   115.10     for time:  144.0     to  145.0    
RIV   no.    7 value from time series:   104.00     for time:  144.0     to  145.0    
RIV   no.    8 value from time series:   104.00     for time:  144.0     to  145.0    
RIV   no.    9 value from time series:   113.50     for time:  144.0     to  145.0    
RIV   no.   10 value from time series:   113.50     for time:  144.0     to  145.0    
RIV   no.    1 value from time series:   101.00     for time:  144.0     to  145.0    
RIV   no.    2 value from time series:   101.00     for time:  144.0     to  145.0    
RIV   no.    3 value from time series:   111.50     for time:  144.0     to  145.0    
RIV   no.    4 value from time series:   111.50     for time:  144.0     to  145.0    
RIV   no.    5 value from time series:   115.10     for time:  144.0     to  145.0    
RIV   no.    6 value from time series:   115.10     for time:  144.0     to  145.0    
RIV   no.    7 value from time series:   104.00     for time:  144.0     to  145.0    
RIV   no.    8 value from time series:   104.00     for time:  144.0     to  145.0    
RIV   no.    9 value from time series:   113.50     for time:  144.0     to  145.0    
RIV   no.   10 value from time series:   113.50     for time:  144.0     to  145.0    

 NO OUTPUT CONTROL FOR STRESS PERIOD    6   TIME STEP   24
RIV   no.    1 value from time series:   101.00     for time:  145.0     to  146.0    
RIV   no.    2 value from time series:   101.00     for time:  145.0     to  146.0    
RIV   no.    3 value from time series:   111.50     for time:  145.0     to  146.0    
RIV   no.    4 value from time series:   111.50     for time:  145.0     to  146.0    
RIV   no.    5 value from time series:   115.10     for time:  145.0     to  146.0    
RIV   no.    6 value from time series:   115.10     for time:  145.0     to  146.0    
RIV   no.    7 value from time series:   104.00     for time:  145.0     to  146.0    
RIV   no.    8 value from time series:   104.00     for time:  145.0     to  146.0    
RIV   no.    9 value from time series:   113.50     for time:  145.0     to  146.0    
RIV   no.   10 value from time series:   113.50     for time:  145.0     to  146.0    
RIV   no.    1 value from time series:   101.00     for time:  145.0     to  146.0    
RIV   no.    2 value from time series:   101.00     for time:  145.0     to  146.0    
RIV   no.    3 value from time series:   111.50     for time:  145.0     to  146.0    
RIV   no.    4 value from time series:   111.50     for time:  145.0     to  146.0    
RIV   no.    5 value from time series:   115.10     for time:  145.0     to  146.0    
RIV   no.    6 value from time series:   115.10     for time:  145.0     to  146.0    
RIV   no.    7 value from time series:   104.00     for time:  145.0     to  146.0    
RIV   no.    8 value from time series:   104.00     for time:  145.0     to  146.0    
RIV   no.    9 value from time series:   113.50     for time:  145.0     to  146.0    
RIV   no.   10 value from time series:   113.50     for time:  145.0     to  146.0    

 NO OUTPUT CONTROL FOR STRESS PERIOD    6   TIME STEP   25
RIV   no.    1 value from time series:   101.00     for time:  146.0     to  147.0    
RIV   no.    2 value from time series:   101.00     for time:  146.0     to  147.0    
RIV   no.    3 value from time series:   111.50     for time:  146.0     to  147.0    
RIV   no.    4 value from time series:   111.50     for time:  146.0     to  147.0    
RIV   no.    5 value from time series:   115.10     for time:  146.0     to  147.0    
RIV   no.    6 value from time series:   115.10     for time:  146.0     to  147.0    
RIV   no.    7 value from time series:   104.00     for time:  146.0     to  147.0    
RIV   no.    8 value from time series:   104.00     for time:  146.0     to  147.0    
RIV   no.    9 value from time series:   113.50     for time:  146.0     to  147.0    
RIV   no.   10 value from time series:   113.50     for time:  146.0     to  147.0    
RIV   no.    1 value from time series:   101.00     for time:  146.0     to  147.0    
RIV   no.    2 value from time series:   101.00     for time:  146.0     to  147.0    
RIV   no.    3 value from time series:   111.50     for time:  146.0     to  147.0    
RIV   no.    4 value from time series:   111.50     for time:  146.0     to  147.0    
RIV   no.    5 value from time series:   115.10     for time:  146.0     to  147.0    
RIV   no.    6 value from time series:   115.10     for time:  146.0     to  147.0    
RIV   no.    7 value from time series:   104.00     for time:  146.0     to  147.0    
RIV   no.    8 value from time series:   104.00     for time:  146.0     to  147.0    
RIV   no.    9 value from time series:   113.50     for time:  146.0     to  147.0    
RIV   no.   10 value from time series:   113.50     for time:  146.0     to  147.0    

 NO OUTPUT CONTROL FOR STRESS PERIOD    6   TIME STEP   26
RIV   no.    1 value from time series:   101.00     for time:  147.0     to  148.0    
RIV   no.    2 value from time series:   101.00     for time:  147.0     to  148.0    
RIV   no.    3 value from time series:   111.50     for time:  147.0     to  148.0    
RIV   no.    4 value from time series:   111.50     for time:  147.0     to  148.0    
RIV   no.    5 value from time series:   115.10     for time:  147.0     to  148.0    
RIV   no.    6 value from time series:   115.10     for time:  147.0     to  148.0    
RIV   no.    7 value from time series:   104.00     for time:  147.0     to  148.0    
RIV   no.    8 value from time series:   104.00     for time:  147.0     to  148.0    
RIV   no.    9 value from time series:   113.50     for time:  147.0     to  148.0    
RIV   no.   10 value from time series:   113.50     for time:  147.0     to  148.0    
RIV   no.    1 value from time series:   101.00     for time:  147.0     to  148.0    
RIV   no.    2 value from time series:   101.00     for time:  147.0     to  148.0    
RIV   no.    3 value from time series:   111.50     for time:  147.0     to  148.0    
RIV   no.    4 value from time series:   111.50     for time:  147.0     to  148.0    
RIV   no.    5 value from time series:   115.10     for time:  147.0     to  148.0    
RIV   no.    6 value from time series:   115.10     for time:  147.0     to  148.0    
RIV   no.    7 value from time series:   104.00     for time:  147.0     to  148.0    
RIV   no.    8 value from time series:   104.00     for time:  147.0     to  148.0    
RIV   no.    9 value from time series:   113.50     for time:  147.0     to  148.0    
RIV   no.   10 value from time series:   113.50     for time:  147.0     to  148.0    

 NO OUTPUT CONTROL FOR STRESS PERIOD    6   TIME STEP   27
RIV   no.    1 value from time series:   101.00     for time:  148.0     to  149.0    
RIV   no.    2 value from time series:   101.00     for time:  148.0     to  149.0    
RIV   no.    3 value from time series:   111.50     for time:  148.0     to  149.0    
RIV   no.    4 value from time series:   111.50     for time:  148.0     to  149.0    
RIV   no.    5 value from time series:   115.10     for time:  148.0     to  149.0    
RIV   no.    6 value from time series:   115.10     for time:  148.0     to  149.0    
RIV   no.    7 value from time series:   104.00     for time:  148.0     to  149.0    
RIV   no.    8 value from time series:   104.00     for time:  148.0     to  149.0    
RIV   no.    9 value from time series:   113.50     for time:  148.0     to  149.0    
RIV   no.   10 value from time series:   113.50     for time:  148.0     to  149.0    
RIV   no.    1 value from time series:   101.00     for time:  148.0     to  149.0    
RIV   no.    2 value from time series:   101.00     for time:  148.0     to  149.0    
RIV   no.    3 value from time series:   111.50     for time:  148.0     to  149.0    
RIV   no.    4 value from time series:   111.50     for time:  148.0     to  149.0    
RIV   no.    5 value from time series:   115.10     for time:  148.0     to  149.0    
RIV   no.    6 value from time series:   115.10     for time:  148.0     to  149.0    
RIV   no.    7 value from time series:   104.00     for time:  148.0     to  149.0    
RIV   no.    8 value from time series:   104.00     for time:  148.0     to  149.0    
RIV   no.    9 value from time series:   113.50     for time:  148.0     to  149.0    
RIV   no.   10 value from time series:   113.50     for time:  148.0     to  149.0    

 NO OUTPUT CONTROL FOR STRESS PERIOD    6   TIME STEP   28
RIV   no.    1 value from time series:   101.00     for time:  149.0     to  150.0    
RIV   no.    2 value from time series:   101.00     for time:  149.0     to  150.0    
RIV   no.    3 value from time series:   111.50     for time:  149.0     to  150.0    
RIV   no.    4 value from time series:   111.50     for time:  149.0     to  150.0    
RIV   no.    5 value from time series:   115.10     for time:  149.0     to  150.0    
RIV   no.    6 value from time series:   115.10     for time:  149.0     to  150.0    
RIV   no.    7 value from time series:   104.00     for time:  149.0     to  150.0    
RIV   no.    8 value from time series:   104.00     for time:  149.0     to  150.0    
RIV   no.    9 value from time series:   113.50     for time:  149.0     to  150.0    
RIV   no.   10 value from time series:   113.50     for time:  149.0     to  150.0    
RIV   no.    1 value from time series:   101.00     for time:  149.0     to  150.0    
RIV   no.    2 value from time series:   101.00     for time:  149.0     to  150.0    
RIV   no.    3 value from time series:   111.50     for time:  149.0     to  150.0    
RIV   no.    4 value from time series:   111.50     for time:  149.0     to  150.0    
RIV   no.    5 value from time series:   115.10     for time:  149.0     to  150.0    
RIV   no.    6 value from time series:   115.10     for time:  149.0     to  150.0    
RIV   no.    7 value from time series:   104.00     for time:  149.0     to  150.0    
RIV   no.    8 value from time series:   104.00     for time:  149.0     to  150.0    
RIV   no.    9 value from time series:   113.50     for time:  149.0     to  150.0    
RIV   no.   10 value from time series:   113.50     for time:  149.0     to  150.0    

 NO OUTPUT CONTROL FOR STRESS PERIOD    6   TIME STEP   29
RIV   no.    1 value from time series:   101.00     for time:  150.0     to  151.0    
RIV   no.    2 value from time series:   101.00     for time:  150.0     to  151.0    
RIV   no.    3 value from time series:   111.50     for time:  150.0     to  151.0    
RIV   no.    4 value from time series:   111.50     for time:  150.0     to  151.0    
RIV   no.    5 value from time series:   115.10     for time:  150.0     to  151.0    
RIV   no.    6 value from time series:   115.10     for time:  150.0     to  151.0    
RIV   no.    7 value from time series:   104.00     for time:  150.0     to  151.0    
RIV   no.    8 value from time series:   104.00     for time:  150.0     to  151.0    
RIV   no.    9 value from time series:   113.50     for time:  150.0     to  151.0    
RIV   no.   10 value from time series:   113.50     for time:  150.0     to  151.0    
RIV   no.    1 value from time series:   101.00     for time:  150.0     to  151.0    
RIV   no.    2 value from time series:   101.00     for time:  150.0     to  151.0    
RIV   no.    3 value from time series:   111.50     for time:  150.0     to  151.0    
RIV   no.    4 value from time series:   111.50     for time:  150.0     to  151.0    
RIV   no.    5 value from time series:   115.10     for time:  150.0     to  151.0    
RIV   no.    6 value from time series:   115.10     for time:  150.0     to  151.0    
RIV   no.    7 value from time series:   104.00     for time:  150.0     to  151.0    
RIV   no.    8 value from time series:   104.00     for time:  150.0     to  151.0    
RIV   no.    9 value from time series:   113.50     for time:  150.0     to  151.0    
RIV   no.   10 value from time series:   113.50     for time:  150.0     to  151.0    

 NO OUTPUT CONTROL FOR STRESS PERIOD    6   TIME STEP   30
RIV   no.    1 value from time series:   101.00     for time:  151.0     to  152.0    
RIV   no.    2 value from time series:   101.00     for time:  151.0     to  152.0    
RIV   no.    3 value from time series:   111.50     for time:  151.0     to  152.0    
RIV   no.    4 value from time series:   111.50     for time:  151.0     to  152.0    
RIV   no.    5 value from time series:   115.10     for time:  151.0     to  152.0    
RIV   no.    6 value from time series:   115.10     for time:  151.0     to  152.0    
RIV   no.    7 value from time series:   104.00     for time:  151.0     to  152.0    
RIV   no.    8 value from time series:   104.00     for time:  151.0     to  152.0    
RIV   no.    9 value from time series:   113.50     for time:  151.0     to  152.0    
RIV   no.   10 value from time series:   113.50     for time:  151.0     to  152.0    
RIV   no.    1 value from time series:   101.00     for time:  151.0     to  152.0    
RIV   no.    2 value from time series:   101.00     for time:  151.0     to  152.0    
RIV   no.    3 value from time series:   111.50     for time:  151.0     to  152.0    
RIV   no.    4 value from time series:   111.50     for time:  151.0     to  152.0    
RIV   no.    5 value from time series:   115.10     for time:  151.0     to  152.0    
RIV   no.    6 value from time series:   115.10     for time:  151.0     to  152.0    
RIV   no.    7 value from time series:   104.00     for time:  151.0     to  152.0    
RIV   no.    8 value from time series:   104.00     for time:  151.0     to  152.0    
RIV   no.    9 value from time series:   113.50     for time:  151.0     to  152.0    
RIV   no.   10 value from time series:   113.50     for time:  151.0     to  152.0    

 OUTPUT CONTROL FOR STRESS PERIOD    6   TIME STEP   31
    PRINT BUDGET
    PRINT HEAD
    PRINT HEAD FOR ALL LAYERS
    SAVE BUDGET
    SAVE HEAD
    SAVE HEAD FOR ALL LAYERS
 UBDSV1 SAVING          STORAGE ON UNIT   1016 AT TIME STEP     31, STRESS PERIOD      6
 UBDSV1 SAVING FLOW RIGHT FACE  ON UNIT   1016 AT TIME STEP     31, STRESS PERIOD      6
 UBDSV1 SAVING FLOW FRONT FACE  ON UNIT   1016 AT TIME STEP     31, STRESS PERIOD      6
 UBDSV1 SAVING FLOW LOWER FACE  ON UNIT   1016 AT TIME STEP     31, STRESS PERIOD      6
 UBDSV4 SAVING WELLS NEAR RIVER ON UNIT   1016 AT TIME STEP     31, STRESS PERIOD      6
 UBDSV4 SAVING RIVER            ON UNIT   1016 AT TIME STEP     31, STRESS PERIOD      6

 RIVER              PERIOD  6   STEP 31
 BOUNDARY      1   LAYER   1   ROW     1   COL    15   RATE    -5117.62    
 BOUNDARY      2   LAYER   1   ROW     2   COL    15   RATE    -6245.85      RIV2
 BOUNDARY      3   LAYER   1   ROW     3   COL    15   RATE    -2508.61      RIV3
 BOUNDARY      4   LAYER   1   ROW     4   COL    15   RATE    -3974.76    
 BOUNDARY      5   LAYER   1   ROW     5   COL    15   RATE    -2609.77    
 BOUNDARY      6   LAYER   1   ROW     6   COL    15   RATE    -1956.02    
 BOUNDARY      7   LAYER   1   ROW     7   COL    15   RATE    -6446.81      RIVX
 BOUNDARY      8   LAYER   1   ROW     8   COL    15   RATE    -6298.55      RIVX
 BOUNDARY      9   LAYER   1   ROW     9   COL    15   RATE    -2506.32      RIVX
 BOUNDARY     10   LAYER   1   ROW    10   COL    15   RATE    -3415.32    

 GHB LAKES          PERIOD  6   STEP 31
 BOUNDARY      1   LAYER   1   ROW     3   COL     1   RATE    -15176.7    
 BOUNDARY      2   LAYER   1   ROW     7   COL     1   RATE    -2400.09      GHB2_UPPER
 BOUNDARY      3   LAYER   1   ROW     7   COL     1   RATE    -13435.5      GHB2_LOWER
 UBDSV4 SAVING RECHARGE         ON UNIT   1016 AT TIME STEP     31, STRESS PERIOD      6

 RECHARGE           PERIOD  6   STEP 31
 BOUNDARY      1   LAYER   1   ROW     1   COL     1   RATE     877.500    
 BOUNDARY      2   LAYER   1   ROW     1   COL     2   RATE     877.500    
 BOUNDARY      3   LAYER   1   ROW     1   COL     3   RATE     877.500    
 BOUNDARY      4   LAYER   1   ROW     1   COL     4   RATE     877.500    
 BOUNDARY      5   LAYER   1   ROW     1   COL     5   RATE     877.500    
 BOUNDARY      6   LAYER   1   ROW     1   COL     6   RATE     877.500    
 BOUNDARY      7   LAYER   1   ROW     1   COL     7   RATE     877.500    
 BOUNDARY      8   LAYER   1   ROW     1   COL     8   RATE     877.500    
 BOUNDARY      9   LAYER   1   ROW     1   COL     9   RATE     877.500    
 BOUNDARY     10   LAYER   1   ROW     1   COL    10   RATE     877.500    
 BOUNDARY     11   LAYER   1   ROW     1   COL    11   RATE     877.500    
 BOUNDARY     12   LAYER   1   ROW     1   COL    12   RATE     877.500    
 BOUNDARY     13   LAYER   1   ROW     1   COL    13   RATE     877.500    
 BOUNDARY     14   LAYER   1   ROW     1   COL    14   RATE     877.500    
 BOUNDARY     15   LAYER   1   ROW     1   COL    15   RATE     877.500    
 BOUNDARY     16   LAYER   1   ROW     2   COL     1   RATE     877.500    
 BOUNDARY     17   LAYER   1   ROW     2   COL     2   RATE     877.500    
 BOUNDARY     18   LAYER   1   ROW     2   COL     3   RATE     877.500    
 BOUNDARY     19   LAYER   1   ROW     2   COL     4   RATE     877.500    
 BOUNDARY     20   LAYER   1   ROW     2   COL     5   RATE     877.500    
 BOUNDARY     21   LAYER   1   ROW     2   COL     6   RATE     877.500    
 BOUNDARY     22   LAYER   1   ROW     2   COL     7   RATE     877.500    
 BOUNDARY     23   LAYER   1   ROW     2   COL     8   RATE     877.500    
 BOUNDARY     24   LAYER   1   ROW     2   COL     9   RATE     877.500    
 BOUNDARY     25   LAYER   1   ROW     2   COL    10   RATE     877.500    
 BOUNDARY     26   LAYER   1   ROW     2   COL    11   RATE     877.500    
 BOUNDARY     27   LAYER   1   ROW     2   COL    12   RATE     877.500    
 BOUNDARY     28   LAYER   1   ROW     2   COL    13   RATE     877.500    
 BOUNDARY     29   LAYER   1   ROW     2   COL    14   RATE     877.500    
 BOUNDARY     30   LAYER   1   ROW     2   COL    15   RATE     877.500    
 BOUNDARY     31   LAYER   1   ROW     3   COL     1   RATE     877.500    
 BOUNDARY     32   LAYER   1   ROW     3   COL     2   RATE     877.500    
 BOUNDARY     33   LAYER   1   ROW     3   COL     3   RATE     877.500    
 BOUNDARY     34   LAYER   1   ROW     3   COL     4   RATE     877.500    
 BOUNDARY     35   LAYER   1   ROW     3   COL     5   RATE     877.500    
 BOUNDARY     36   LAYER   1   ROW     3   COL     6   RATE     877.500    
 BOUNDARY     37   LAYER   1   ROW     3   COL     7   RATE     877.500    
 BOUNDARY     38   LAYER   1   ROW     3   COL     8   RATE     877.500    
 BOUNDARY     39   LAYER   1   ROW     3   COL     9   RATE     877.500    
 BOUNDARY     40   LAYER   1   ROW     3   COL    10   RATE     877.500    
 BOUNDARY     41   LAYER   1   ROW     3   COL    11   RATE     877.500    
 BOUNDARY     42   LAYER   1   ROW     3   COL    12   RATE     877.500    
 BOUNDARY     43   LAYER   1   ROW     3   COL    13   RATE     877.500    
 BOUNDARY     44   LAYER   1   ROW     3   COL    14   RATE     877.500    
 BOUNDARY     45   LAYER   1   ROW     3   COL    15   RATE     877.500    
 BOUNDARY     46   LAYER   1   ROW     4   COL     1   RATE     877.500    
 BOUNDARY     47   LAYER   1   ROW     4   COL     2   RATE     877.500    
 BOUNDARY     48   LAYER   1   ROW     4   COL     3   RATE     877.500    
 BOUNDARY     49   LAYER   1   ROW     4   COL     4   RATE     877.500    
 BOUNDARY     50   LAYER   1   ROW     4   COL     5   RATE     877.500    
 BOUNDARY     51   LAYER   1   ROW     4   COL     6   RATE     877.500    
 BOUNDARY     52   LAYER   1   ROW     4   COL     7   RATE     877.500    
 BOUNDARY     53   LAYER   1   ROW     4   COL     8   RATE     877.500    
 BOUNDARY     54   LAYER   1   ROW     4   COL     9   RATE     877.500    
 BOUNDARY     55   LAYER   1   ROW     4   COL    10   RATE     877.500    
 BOUNDARY     56   LAYER   1   ROW     4   COL    11   RATE     877.500    
 BOUNDARY     57   LAYER   1   ROW     4   COL    12   RATE     877.500    
 BOUNDARY     58   LAYER   1   ROW     4   COL    13   RATE     877.500    
 BOUNDARY     59   LAYER   1   ROW     4   COL    14   RATE     877.500    
 BOUNDARY     60   LAYER   1   ROW     4   COL    15   RATE     877.500    
 BOUNDARY     61   LAYER   1   ROW     5   COL     1   RATE     877.500    
 BOUNDARY     62   LAYER   1   ROW     5   COL     2   RATE     877.500    
 BOUNDARY     63   LAYER   1   ROW     5   COL     3   RATE     877.500    
 BOUNDARY     64   LAYER   1   ROW     5   COL     4   RATE     877.500    
 BOUNDARY     65   LAYER   1   ROW     5   COL     5   RATE     877.500    
 BOUNDARY     66   LAYER   1   ROW     5   COL     6   RATE     877.500    
 BOUNDARY     67   LAYER   1   ROW     5   COL     7   RATE     877.500    
 BOUNDARY     68   LAYER   1   ROW     5   COL     8   RATE     877.500    
 BOUNDARY     69   LAYER   1   ROW     5   COL     9   RATE     877.500    
 BOUNDARY     70   LAYER   1   ROW     5   COL    10   RATE     877.500    
 BOUNDARY     71   LAYER   1   ROW     5   COL    11   RATE     877.500    
 BOUNDARY     72   LAYER   1   ROW     5   COL    12   RATE     877.500    
 BOUNDARY     73   LAYER   1   ROW     5   COL    13   RATE     877.500    
 BOUNDARY     74   LAYER   1   ROW     5   COL    14   RATE     877.500    
 BOUNDARY     75   LAYER   1   ROW     5   COL    15   RATE     877.500    
 BOUNDARY     76   LAYER   1   ROW     6   COL     1   RATE     877.500    
 BOUNDARY     77   LAYER   1   ROW     6   COL     2   RATE     877.500    
 BOUNDARY     78   LAYER   1   ROW     6   COL     3   RATE     877.500    
 BOUNDARY     79   LAYER   1   ROW     6   COL     4   RATE     877.500    
 BOUNDARY     80   LAYER   1   ROW     6   COL     5   RATE     877.500    
 BOUNDARY     81   LAYER   1   ROW     6   COL     6   RATE     877.500    
 BOUNDARY     82   LAYER   1   ROW     6   COL     7   RATE     877.500    
 BOUNDARY     83   LAYER   1   ROW     6   COL     8   RATE     877.500    
 BOUNDARY     84   LAYER   1   ROW     6   COL     9   RATE     877.500    
 BOUNDARY     85   LAYER   1   ROW     6   COL    10   RATE     877.500    
 BOUNDARY     86   LAYER   1   ROW     6   COL    11   RATE     877.500    
 BOUNDARY     87   LAYER   1   ROW     6   COL    12   RATE     877.500    
 BOUNDARY     88   LAYER   1   ROW     6   COL    13   RATE     877.500    
 BOUNDARY     89   LAYER   1   ROW     6   COL    14   RATE     877.500    
 BOUNDARY     90   LAYER   1   ROW     6   COL    15   RATE     877.500    
 BOUNDARY     91   LAYER   1   ROW     7   COL     1   RATE     877.500    
 BOUNDARY     92   LAYER   1   ROW     7   COL     2   RATE     877.500    
 BOUNDARY     93   LAYER   1   ROW     7   COL     3   RATE     877.500    
 BOUNDARY     94   LAYER   1   ROW     7   COL     4   RATE     877.500    
 BOUNDARY     95   LAYER   1   ROW     7   COL     5   RATE     877.500    
 BOUNDARY     96   LAYER   1   ROW     7   COL     6   RATE     877.500    
 BOUNDARY     97   LAYER   1   ROW     7   COL     7   RATE     877.500    
 BOUNDARY     98   LAYER   1   ROW     7   COL     8   RATE     877.500    
 BOUNDARY     99   LAYER   1   ROW     7   COL     9   RATE     877.500    
 BOUNDARY    100   LAYER   1   ROW     7   COL    10   RATE     877.500    
 BOUNDARY    101   LAYER   1   ROW     7   COL    11   RATE     877.500    
 BOUNDARY    102   LAYER   1   ROW     7   COL    12   RATE     877.500    
 BOUNDARY    103   LAYER   1   ROW     7   COL    13   RATE     877.500    
 BOUNDARY    104   LAYER   1   ROW     7   COL    14   RATE     877.500    
 BOUNDARY    105   LAYER   1   ROW     7   COL    15   RATE     877.500    
 BOUNDARY    106   LAYER   1   ROW     8   COL     1   RATE     877.500    
 BOUNDARY    107   LAYER   1   ROW     8   COL     2   RATE     877.500    
 BOUNDARY    108   LAYER   1   ROW     8   COL     3   RATE     877.500    
 BOUNDARY    109   LAYER   1   ROW     8   COL     4   RATE     877.500    
 BOUNDARY    110   LAYER   1   ROW     8   COL     5   RATE     877.500    
 BOUNDARY    111   LAYER   1   ROW     8   COL     6   RATE     877.500    
 BOUNDARY    112   LAYER   1   ROW     8   COL     7   RATE     877.500    
 BOUNDARY    113   LAYER   1   ROW     8   COL     8   RATE     877.500    
 BOUNDARY    114   LAYER   1   ROW     8   COL     9   RATE     877.500    
 BOUNDARY    115   LAYER   1   ROW     8   COL    10   RATE     877.500    
 BOUNDARY    116   LAYER   1   ROW     8   COL    11   RATE     877.500    
 BOUNDARY    117   LAYER   1   ROW     8   COL    12   RATE     877.500    
 BOUNDARY    118   LAYER   1   ROW     8   COL    13   RATE     877.500    
 BOUNDARY    119   LAYER   1   ROW     8   COL    14   RATE     877.500    
 BOUNDARY    120   LAYER   1   ROW     8   COL    15   RATE     877.500    
 BOUNDARY    121   LAYER   1   ROW     9   COL     1   RATE     877.500    
 BOUNDARY    122   LAYER   1   ROW     9   COL     2   RATE     877.500    
 BOUNDARY    123   LAYER   1   ROW     9   COL     3   RATE     877.500    
 BOUNDARY    124   LAYER   1   ROW     9   COL     4   RATE     877.500    
 BOUNDARY    125   LAYER   1   ROW     9   COL     5   RATE     877.500    
 BOUNDARY    126   LAYER   1   ROW     9   COL     6   RATE     877.500    
 BOUNDARY    127   LAYER   1   ROW     9   COL     7   RATE     877.500    
 BOUNDARY    128   LAYER   1   ROW     9   COL     8   RATE     877.500    
 BOUNDARY    129   LAYER   1   ROW     9   COL     9   RATE     877.500    
 BOUNDARY    130   LAYER   1   ROW     9   COL    10   RATE     877.500    
 BOUNDARY    131   LAYER   1   ROW     9   COL    11   RATE     877.500    
 BOUNDARY    132   LAYER   1   ROW     9   COL    12   RATE     877.500    
 BOUNDARY    133   LAYER   1   ROW     9   COL    13   RATE     877.500    
 BOUNDARY    134   LAYER   1   ROW     9   COL    14   RATE     877.500    
 BOUNDARY    135   LAYER   1   ROW     9   COL    15   RATE     877.500    
 BOUNDARY    136   LAYER   1   ROW    10   COL     1   RATE     877.500    
 BOUNDARY    137   LAYER   1   ROW    10   COL     2   RATE     877.500    
 BOUNDARY    138   LAYER   1   ROW    10   COL     3   RATE     877.500    
 BOUNDARY    139   LAYER   1   ROW    10   COL     4   RATE     877.500    
 BOUNDARY    140   LAYER   1   ROW    10   COL     5   RATE     877.500    
 BOUNDARY    141   LAYER   1   ROW    10   COL     6   RATE     877.500    
 BOUNDARY    142   LAYER   1   ROW    10   COL     7   RATE     877.500    
 BOUNDARY    143   LAYER   1   ROW    10   COL     8   RATE     877.500    
 BOUNDARY    144   LAYER   1   ROW    10   COL     9   RATE     877.500    
 BOUNDARY    145   LAYER   1   ROW    10   COL    10   RATE     877.500    
 BOUNDARY    146   LAYER   1   ROW    10   COL    11   RATE     877.500    
 BOUNDARY    147   LAYER   1   ROW    10   COL    12   RATE     877.500    
 BOUNDARY    148   LAYER   1   ROW    10   COL    13   RATE     877.500    
 BOUNDARY    149   LAYER   1   ROW    10   COL    14   RATE     877.500    
 BOUNDARY    150   LAYER   1   ROW    10   COL    15   RATE     877.500    
 UBDSV4 SAVING ET SEGS          ON UNIT   1016 AT TIME STEP     31, STRESS PERIOD      6

 ET SEGS            PERIOD  6   STEP 31
 BOUNDARY      1   LAYER   1   ROW     1   COL     1   RATE    -4.19426    
 BOUNDARY      2   LAYER   1   ROW     1   COL     2   RATE    -13.5711    
 BOUNDARY      3   LAYER   1   ROW     1   COL     3   RATE    -85.0522    
 BOUNDARY      4   LAYER   1   ROW     1   COL     4   RATE   -100.0000    
 BOUNDARY      5   LAYER   1   ROW     1   COL     5   RATE   -100.0000    
 BOUNDARY      6   LAYER   1   ROW     1   COL     6   RATE   -100.0000    
 BOUNDARY      7   LAYER   1   ROW     1   COL     7   RATE   -100.0000    
 BOUNDARY      8   LAYER   1   ROW     1   COL     8   RATE   -100.0000    
 BOUNDARY      9   LAYER   1   ROW     1   COL     9   RATE   -100.0000    
 BOUNDARY     10   LAYER   1   ROW     1   COL    10   RATE   -100.0000    
 BOUNDARY     11   LAYER   1   ROW     1   COL    11   RATE   -100.0000    
 BOUNDARY     12   LAYER   1   ROW     1   COL    12   RATE    -23.8854    
 BOUNDARY     13   LAYER   1   ROW     1   COL    13   RATE    -1.19652    
 BOUNDARY     14   LAYER   1   ROW     1   COL    14   RATE     0.00000    
 BOUNDARY     15   LAYER   1   ROW     1   COL    15   RATE     0.00000    
 BOUNDARY     16   LAYER   1   ROW     2   COL     1   RATE     0.00000    
 BOUNDARY     17   LAYER   1   ROW     2   COL     2   RATE    -6.50533    
 BOUNDARY     18   LAYER   1   ROW     2   COL     3   RATE    -56.8972    
 BOUNDARY     19   LAYER   1   ROW     2   COL     4   RATE   -100.0000    
 BOUNDARY     20   LAYER   1   ROW     2   COL     5   RATE   -100.0000    
 BOUNDARY     21   LAYER   1   ROW     2   COL     6   RATE   -100.0000    
 BOUNDARY     22   LAYER   1   ROW     2   COL     7   RATE   -100.0000    
 BOUNDARY     23   LAYER   1   ROW     2   COL     8   RATE   -100.0000    
 BOUNDARY     24   LAYER   1   ROW     2   COL     9   RATE   -100.0000    
 BOUNDARY     25   LAYER   1   ROW     2   COL    10   RATE   -100.0000    
 BOUNDARY     26   LAYER   1   ROW     2   COL    11   RATE   -100.0000    
 BOUNDARY     27   LAYER   1   ROW     2   COL    12   RATE    -25.6296    
 BOUNDARY     28   LAYER   1   ROW     2   COL    13   RATE    -2.18268    
 BOUNDARY     29   LAYER   1   ROW     2   COL    14   RATE     0.00000    
 BOUNDARY     30   LAYER   1   ROW     2   COL    15   RATE     0.00000    
 BOUNDARY     31   LAYER   1   ROW     3   COL     1   RATE     0.00000    
 BOUNDARY     32   LAYER   1   ROW     3   COL     2   RATE     0.00000    
 BOUNDARY     33   LAYER   1   ROW     3   COL     3   RATE    -29.1481    
 BOUNDARY     34   LAYER   1   ROW     3   COL     4   RATE   -100.0000    
 BOUNDARY     35   LAYER   1   ROW     3   COL     5   RATE   -100.0000    
 BOUNDARY     36   LAYER   1   ROW     3   COL     6   RATE   -100.0000    
 BOUNDARY     37   LAYER   1   ROW     3   COL     7   RATE   -100.0000    
 BOUNDARY     38   LAYER   1   ROW     3   COL     8   RATE   -100.0000    
 BOUNDARY     39   LAYER   1   ROW     3   COL     9   RATE   -100.0000    
 BOUNDARY     40   LAYER   1   ROW     3   COL    10   RATE   -100.0000    
 BOUNDARY     41   LAYER   1   ROW     3   COL    11   RATE   -100.0000    
 BOUNDARY     42   LAYER   1   ROW     3   COL    12   RATE    -28.5639    
 BOUNDARY     43   LAYER   1   ROW     3   COL    13   RATE    -3.97622    
 BOUNDARY     44   LAYER   1   ROW     3   COL    14   RATE     0.00000    
 BOUNDARY     45   LAYER   1   ROW     3   COL    15   RATE     0.00000    
 BOUNDARY     46   LAYER   1   ROW     4   COL     1   RATE     0.00000    
 BOUNDARY     47   LAYER   1   ROW     4   COL     2   RATE    -4.98951    
 BOUNDARY     48   LAYER   1   ROW     4   COL     3   RATE    -45.9732    
 BOUNDARY     49   LAYER   1   ROW     4   COL     4   RATE   -100.0000    
 BOUNDARY     50   LAYER   1   ROW     4   COL     5   RATE   -100.0000    
 BOUNDARY     51   LAYER   1   ROW     4   COL     6   RATE   -100.0000    
 BOUNDARY     52   LAYER   1   ROW     4   COL     7   RATE   -100.0000    
 BOUNDARY     53   LAYER   1   ROW     4   COL     8   RATE   -100.0000    
 BOUNDARY     54   LAYER   1   ROW     4   COL     9   RATE   -100.0000    
 BOUNDARY     55   LAYER   1   ROW     4   COL    10   RATE   -100.0000    
 BOUNDARY     56   LAYER   1   ROW     4   COL    11   RATE   -100.0000    
 BOUNDARY     57   LAYER   1   ROW     4   COL    12   RATE    -36.9633    
 BOUNDARY     58   LAYER   1   ROW     4   COL    13   RATE    -5.42094    
 BOUNDARY     59   LAYER   1   ROW     4   COL    14   RATE     0.00000    
 BOUNDARY     60   LAYER   1   ROW     4   COL    15   RATE     0.00000    
 BOUNDARY     61   LAYER   1   ROW     5   COL     1   RATE     0.00000    
 BOUNDARY     62   LAYER   1   ROW     5   COL     2   RATE    -7.99385    
 BOUNDARY     63   LAYER   1   ROW     5   COL     3   RATE    -66.5798    
 BOUNDARY     64   LAYER   1   ROW     5   COL     4   RATE   -100.0000    
 BOUNDARY     65   LAYER   1   ROW     5   COL     5   RATE   -100.0000    
 BOUNDARY     66   LAYER   1   ROW     5   COL     6   RATE   -100.0000    
 BOUNDARY     67   LAYER   1   ROW     5   COL     7   RATE   -100.0000    
 BOUNDARY     68   LAYER   1   ROW     5   COL     8   RATE   -100.0000    
 BOUNDARY     69   LAYER   1   ROW     5   COL     9   RATE   -100.0000    
 BOUNDARY     70   LAYER   1   ROW     5   COL    10   RATE   -100.0000    
 BOUNDARY     71   LAYER   1   ROW     5   COL    11   RATE   -100.0000    
 BOUNDARY     72   LAYER   1   ROW     5   COL    12   RATE    -46.7588    
 BOUNDARY     73   LAYER   1   ROW     5   COL    13   RATE    -6.29341    
 BOUNDARY     74   LAYER   1   ROW     5   COL    14   RATE     0.00000    
 BOUNDARY     75   LAYER   1   ROW     5   COL    15   RATE     0.00000    
 BOUNDARY     76   LAYER   1   ROW     6   COL     1   RATE     0.00000    
 BOUNDARY     77   LAYER   1   ROW     6   COL     2   RATE    -6.50816    
 BOUNDARY     78   LAYER   1   ROW     6   COL     3   RATE    -70.1042    
 BOUNDARY     79   LAYER   1   ROW     6   COL     4   RATE   -100.0000    
 BOUNDARY     80   LAYER   1   ROW     6   COL     5   RATE   -100.0000    
 BOUNDARY     81   LAYER   1   ROW     6   COL     6   RATE   -100.0000    
 BOUNDARY     82   LAYER   1   ROW     6   COL     7   RATE   -100.0000    
 BOUNDARY     83   LAYER   1   ROW     6   COL     8   RATE   -100.0000    
 BOUNDARY     84   LAYER   1   ROW     6   COL     9   RATE   -100.0000    
 BOUNDARY     85   LAYER   1   ROW     6   COL    10   RATE   -100.0000    
 BOUNDARY     86   LAYER   1   ROW     6   COL    11   RATE   -100.0000    
 BOUNDARY     87   LAYER   1   ROW     6   COL    12   RATE    -50.0227    
 BOUNDARY     88   LAYER   1   ROW     6   COL    13   RATE    -6.24105    
 BOUNDARY     89   LAYER   1   ROW     6   COL    14   RATE     0.00000    
 BOUNDARY     90   LAYER   1   ROW     6   COL    15   RATE     0.00000    
 BOUNDARY     91   LAYER   1   ROW     7   COL     1   RATE     0.00000    
 BOUNDARY     92   LAYER   1   ROW     7   COL     2   RATE    -2.87262    
 BOUNDARY     93   LAYER   1   ROW     7   COL     3   RATE    -76.6848    
 BOUNDARY     94   LAYER   1   ROW     7   COL     4   RATE   -100.0000    
 BOUNDARY     95   LAYER   1   ROW     7   COL     5   RATE   -100.0000    
 BOUNDARY     96   LAYER   1   ROW     7   COL     6   RATE   -100.0000    
 BOUNDARY     97   LAYER   1   ROW     7   COL     7   RATE   -100.0000    
 BOUNDARY     98   LAYER   1   ROW     7   COL     8   RATE   -100.0000    
 BOUNDARY     99   LAYER   1   ROW     7   COL     9   RATE   -100.0000    
 BOUNDARY    100   LAYER   1   ROW     7   COL    10   RATE   -100.0000    
 BOUNDARY    101   LAYER   1   ROW     7   COL    11   RATE   -100.0000    
 BOUNDARY    102   LAYER   1   ROW     7   COL    12   RATE    -49.3261    
 BOUNDARY    103   LAYER   1   ROW     7   COL    13   RATE    -5.53367    
 BOUNDARY    104   LAYER   1   ROW     7   COL    14   RATE     0.00000    
 BOUNDARY    105   LAYER   1   ROW     7   COL    15   RATE     0.00000    
 BOUNDARY    106   LAYER   1   ROW     8   COL     1   RATE   -0.201025    
 BOUNDARY    107   LAYER   1   ROW     8   COL     2   RATE    -17.9189    
 BOUNDARY    108   LAYER   1   ROW     8   COL     3   RATE   -100.0000    
 BOUNDARY    109   LAYER   1   ROW     8   COL     4   RATE   -100.0000    
 BOUNDARY    110   LAYER   1   ROW     8   COL     5   RATE   -100.0000    
 BOUNDARY    111   LAYER   1   ROW     8   COL     6   RATE   -100.0000    
 BOUNDARY    112   LAYER   1   ROW     8   COL     7   RATE   -100.0000    
 BOUNDARY    113   LAYER   1   ROW     8   COL     8   RATE   -100.0000    
 BOUNDARY    114   LAYER   1   ROW     8   COL     9   RATE   -100.0000    
 BOUNDARY    115   LAYER   1   ROW     8   COL    10   RATE   -100.0000    
 BOUNDARY    116   LAYER   1   ROW     8   COL    11   RATE   -100.0000    
 BOUNDARY    117   LAYER   1   ROW     8   COL    12   RATE    -51.6064    
 BOUNDARY    118   LAYER   1   ROW     8   COL    13   RATE    -5.58218    
 BOUNDARY    119   LAYER   1   ROW     8   COL    14   RATE     0.00000    
 BOUNDARY    120   LAYER   1   ROW     8   COL    15   RATE     0.00000    
 BOUNDARY    121   LAYER   1   ROW     9   COL     1   RATE    -25.5734    
 BOUNDARY    122   LAYER   1   ROW     9   COL     2   RATE    -96.2593    
 BOUNDARY    123   LAYER   1   ROW     9   COL     3   RATE   -100.0000    
 BOUNDARY    124   LAYER   1   ROW     9   COL     4   RATE   -100.0000    
 BOUNDARY    125   LAYER   1   ROW     9   COL     5   RATE   -100.0000    
 BOUNDARY    126   LAYER   1   ROW     9   COL     6   RATE   -100.0000    
 BOUNDARY    127   LAYER   1   ROW     9   COL     7   RATE   -100.0000    
 BOUNDARY    128   LAYER   1   ROW     9   COL     8   RATE   -100.0000    
 BOUNDARY    129   LAYER   1   ROW     9   COL     9   RATE   -100.0000    
 BOUNDARY    130   LAYER   1   ROW     9   COL    10   RATE   -100.0000    
 BOUNDARY    131   LAYER   1   ROW     9   COL    11   RATE   -100.0000    
 BOUNDARY    132   LAYER   1   ROW     9   COL    12   RATE    -57.5872    
 BOUNDARY    133   LAYER   1   ROW     9   COL    13   RATE    -6.45743    
 BOUNDARY    134   LAYER   1   ROW     9   COL    14   RATE     0.00000    
 BOUNDARY    135   LAYER   1   ROW     9   COL    15   RATE     0.00000    
 BOUNDARY    136   LAYER   1   ROW    10   COL     1   RATE   -100.0000    
 BOUNDARY    137   LAYER   1   ROW    10   COL     2   RATE   -100.0000    
 BOUNDARY    138   LAYER   1   ROW    10   COL     3   RATE   -100.0000    
 BOUNDARY    139   LAYER   1   ROW    10   COL     4   RATE   -100.0000    
 BOUNDARY    140   LAYER   1   ROW    10   COL     5   RATE   -100.0000    
 BOUNDARY    141   LAYER   1   ROW    10   COL     6   RATE   -100.0000    
 BOUNDARY    142   LAYER   1   ROW    10   COL     7   RATE   -100.0000    
 BOUNDARY    143   LAYER   1   ROW    10   COL     8   RATE   -100.0000    
 BOUNDARY    144   LAYER   1   ROW    10   COL     9   RATE   -100.0000    
 BOUNDARY    145   LAYER   1   ROW    10   COL    10   RATE   -100.0000    
 BOUNDARY    146   LAYER   1   ROW    10   COL    11   RATE   -100.0000    
 BOUNDARY    147   LAYER   1   ROW    10   COL    12   RATE    -61.8643    
 BOUNDARY    148   LAYER   1   ROW    10   COL    13   RATE    -7.01530    
 BOUNDARY    149   LAYER   1   ROW    10   COL    14   RATE     0.00000    
 BOUNDARY    150   LAYER   1   ROW    10   COL    15   RATE     0.00000    
1
  HEAD             IN LAYER   1 AT END OF TIME STEP  31 IN STRESS PERIOD    6
  ---------------------------------------------------------------------------

           1       2       3       4       5       6       7       8       9      10      11      12      13      14      15
 ...........................................................................................................................
   1   132.10  135.54  139.57  143.09  145.76  147.50  148.29  148.13  147.02  144.88  141.64  137.08  130.60  121.16  106.11
   2   126.72  133.25  138.77  142.82  145.68  147.49  148.32  148.18  147.08  144.97  141.78  137.34  131.09  122.06  107.23
   3   110.10  129.76  137.87  142.58  145.65  147.53  148.38  148.27  147.19  145.13  142.03  137.78  131.99  124.21  114.00
   4   125.45  132.49  138.46  142.77  145.77  147.65  148.50  148.39  147.33  145.31  142.29  138.20  132.71  125.45  115.46
   5   129.28  134.00  139.05  143.09  146.00  147.84  148.67  148.55  147.49  145.49  142.51  138.48  133.15  126.28  117.70
   6   126.16  133.25  139.15  143.38  146.29  148.08  148.87  148.72  147.65  145.63  142.64  138.57  133.12  125.96  117.04
   7   111.71  131.44  139.33  143.83  146.68  148.38  149.10  148.90  147.79  145.76  142.72  138.55  132.77  124.40  110.40
   8   130.10  136.19  141.15  144.75  147.22  148.73  149.34  149.07  147.93  145.87  142.81  138.62  132.79  124.34  110.25
   9   137.34  139.89  142.97  145.68  147.74  149.04  149.53  149.21  148.03  145.96  142.92  138.79  133.23  125.77  115.98
  10   140.13  141.72  144.00  146.24  148.05  149.22  149.65  149.29  148.09  146.02  142.99  138.91  133.51  126.38  116.88
1
  HEAD             IN LAYER   2 AT END OF TIME STEP  31 IN STRESS PERIOD    6
  ---------------------------------------------------------------------------

           1       2       3       4       5       6       7       8       9      10      11      12      13      14      15
 ...........................................................................................................................
   1   132.96  135.24  138.42  141.49  143.97  145.63  146.39  146.21  145.05  142.88  139.66  135.34  129.95  123.87  118.53
   2   131.15  134.24  137.97  141.32  143.92  145.64  146.42  146.25  145.11  142.97  139.80  135.58  130.35  124.52  119.42
   3   128.50  133.10  137.55  141.20  143.92  145.69  146.49  146.34  145.22  143.13  140.04  135.97  131.02  125.67  121.32
   4   130.49  133.81  137.80  141.34  144.04  145.81  146.62  146.47  145.37  143.31  140.29  136.35  131.62  126.60  122.56
   5   131.71  134.52  138.22  141.62  144.27  146.00  146.79  146.63  145.53  143.49  140.51  136.63  132.01  127.14  123.33
   6   131.37  134.65  138.55  141.98  144.58  146.25  146.99  146.81  145.69  143.64  140.66  136.76  132.09  127.10  123.11
   7   130.39  134.87  139.09  142.49  144.98  146.56  147.23  146.99  145.84  143.77  140.76  136.81  131.99  126.64  121.97
   8   134.31  137.09  140.38  143.28  145.49  146.89  147.46  147.16  145.98  143.89  140.86  136.90  132.05  126.67  121.95
   9   137.57  139.29  141.71  144.07  145.96  147.19  147.66  147.30  146.09  143.98  140.96  137.04  132.31  127.22  123.08
  10   139.25  140.53  142.50  144.54  146.24  147.36  147.77  147.38  146.15  144.04  141.03  137.14  132.50  127.57  123.63

 HEAD WILL BE SAVED ON UNIT 1017 AT END OF TIME STEP   31, STRESS PERIOD    6
1
  VOLUME BUDGET FOR ENTIRE MODEL AT END OF TIME STEP   31, STRESS PERIOD   6
  ------------------------------------------------------------------------------

     CUMULATIVE VOLUME      L**3       RATES FOR THIS TIME STEP      L**3/T
     ------------------                 ------------------------

           IN:                                      IN:
           ---                                      ---
             STORAGE =       53160.3109               STORAGE =           0.0000
    WELLS NEAR RIVER =           0.0000      WELLS NEAR RIVER =           0.0000
               RIVER =           0.0000                 RIVER =           0.0000
           GHB LAKES =           0.0000             GHB LAKES =           0.0000
            RECHARGE =    15675500.0000              RECHARGE =      131625.0000
             ET SEGS =           0.0000               ET SEGS =           0.0000

            TOTAL IN =    15728660.3109              TOTAL IN =      131625.0000

          OUT:                                     OUT:
          ----                                     ----
             STORAGE =     3983638.6893               STORAGE =       49933.9915
    WELLS NEAR RIVER =        5570.0000      WELLS NEAR RIVER =           0.0000
               RIVER =     5779672.6857                 RIVER =       41079.6203
           GHB LAKES =     4557191.1468             GHB LAKES =       31012.2542
            RECHARGE =           0.0000              RECHARGE =           0.0000
             ET SEGS =     1402587.7903               ET SEGS =        9599.1340

           TOTAL OUT =    15728660.3121             TOTAL OUT =      131625.0000

            IN - OUT =      -1.2089E-03              IN - OUT =      -4.5933E-06

 PERCENT DISCREPANCY =          -0.00     PERCENT DISCREPANCY =          -0.00






         TIME SUMMARY AT END OF TIME STEP   31 IN STRESS PERIOD    6
                    SECONDS     MINUTES      HOURS       DAYS        YEARS
                    -----------------------------------------------------------
   TIME STEP LENGTH  86400.      1440.0      24.000     1.00000     2.73785E-03
 STRESS PERIOD TIME 2.67840E+06  44640.      744.00      31.000     8.48734E-02
         TOTAL TIME 1.31328E+07 2.18880E+05  3648.0      152.00     0.41615    

 REUSING STORAGE VALUES FROM LAST STRESS PERIOD

 REUSING WELS FROM LAST STRESS PERIOD

 REUSING RIVS FROM LAST STRESS PERIOD

 REUSING GHBS FROM LAST STRESS PERIOD

 REUSING RCHS FROM LAST STRESS PERIOD

 REUSING ETSS FROM LAST STRESS PERIOD
RIV   no.    1 value from time series:   101.00     for time:  152.0     to  153.0    
RIV   no.    2 value from time series:   101.00     for time:  152.0     to  153.0    
RIV   no.    3 value from time series:   111.50     for time:  152.0     to  153.0    
RIV   no.    4 value from time series:   111.50     for time:  152.0     to  153.0    
RIV   no.    5 value from time series:   115.10     for time:  152.0     to  153.0    
RIV   no.    6 value from time series:   115.10     for time:  152.0     to  153.0    
RIV   no.    7 value from time series:   104.00     for time:  152.0     to  153.0    
RIV   no.    8 value from time series:   104.00     for time:  152.0     to  153.0    
RIV   no.    9 value from time series:   113.50     for time:  152.0     to  153.0    
RIV   no.   10 value from time series:   113.50     for time:  152.0     to  153.0    
RIV   no.    1 value from time series:   101.00     for time:  152.0     to  153.0    
RIV   no.    2 value from time series:   101.00     for time:  152.0     to  153.0    
RIV   no.    3 value from time series:   111.50     for time:  152.0     to  153.0    
RIV   no.    4 value from time series:   111.50     for time:  152.0     to  153.0    
RIV   no.    5 value from time series:   115.10     for time:  152.0     to  153.0    
RIV   no.    6 value from time series:   115.10     for time:  152.0     to  153.0    
RIV   no.    7 value from time series:   104.00     for time:  152.0     to  153.0    
RIV   no.    8 value from time series:   104.00     for time:  152.0     to  153.0    
RIV   no.    9 value from time series:   113.50     for time:  152.0     to  153.0    
RIV   no.   10 value from time series:   113.50     for time:  152.0     to  153.0    

 NO OUTPUT CONTROL FOR STRESS PERIOD    7   TIME STEP    1
RIV   no.    1 value from time series:   101.00     for time:  153.0     to  154.0    
RIV   no.    2 value from time series:   101.00     for time:  153.0     to  154.0    
RIV   no.    3 value from time series:   111.50     for time:  153.0     to  154.0    
RIV   no.    4 value from time series:   111.50     for time:  153.0     to  154.0    
RIV   no.    5 value from time series:   115.10     for time:  153.0     to  154.0    
RIV   no.    6 value from time series:   115.10     for time:  153.0     to  154.0    
RIV   no.    7 value from time series:   104.00     for time:  153.0     to  154.0    
RIV   no.    8 value from time series:   104.00     for time:  153.0     to  154.0    
RIV   no.    9 value from time series:   113.50     for time:  153.0     to  154.0    
RIV   no.   10 value from time series:   113.50     for time:  153.0     to  154.0    
RIV   no.    1 value from time series:   101.00     for time:  153.0     to  154.0    
RIV   no.    2 value from time series:   101.00     for time:  153.0     to  154.0    
RIV   no.    3 value from time series:   111.50     for time:  153.0     to  154.0    
RIV   no.    4 value from time series:   111.50     for time:  153.0     to  154.0    
RIV   no.    5 value from time series:   115.10     for time:  153.0     to  154.0    
RIV   no.    6 value from time series:   115.10     for time:  153.0     to  154.0    
RIV   no.    7 value from time series:   104.00     for time:  153.0     to  154.0    
RIV   no.    8 value from time series:   104.00     for time:  153.0     to  154.0    
RIV   no.    9 value from time series:   113.50     for time:  153.0     to  154.0    
RIV   no.   10 value from time series:   113.50     for time:  153.0     to  154.0    

 NO OUTPUT CONTROL FOR STRESS PERIOD    7   TIME STEP    2
RIV   no.    1 value from time series:   101.00     for time:  154.0     to  155.0    
RIV   no.    2 value from time series:   101.00     for time:  154.0     to  155.0    
RIV   no.    3 value from time series:   111.50     for time:  154.0     to  155.0    
RIV   no.    4 value from time series:   111.50     for time:  154.0     to  155.0    
RIV   no.    5 value from time series:   115.10     for time:  154.0     to  155.0    
RIV   no.    6 value from time series:   115.10     for time:  154.0     to  155.0    
RIV   no.    7 value from time series:   104.00     for time:  154.0     to  155.0    
RIV   no.    8 value from time series:   104.00     for time:  154.0     to  155.0    
RIV   no.    9 value from time series:   113.50     for time:  154.0     to  155.0    
RIV   no.   10 value from time series:   113.50     for time:  154.0     to  155.0    
RIV   no.    1 value from time series:   101.00     for time:  154.0     to  155.0    
RIV   no.    2 value from time series:   101.00     for time:  154.0     to  155.0    
RIV   no.    3 value from time series:   111.50     for time:  154.0     to  155.0    
RIV   no.    4 value from time series:   111.50     for time:  154.0     to  155.0    
RIV   no.    5 value from time series:   115.10     for time:  154.0     to  155.0    
RIV   no.    6 value from time series:   115.10     for time:  154.0     to  155.0    
RIV   no.    7 value from time series:   104.00     for time:  154.0     to  155.0    
RIV   no.    8 value from time series:   104.00     for time:  154.0     to  155.0    
RIV   no.    9 value from time series:   113.50     for time:  154.0     to  155.0    
RIV   no.   10 value from time series:   113.50     for time:  154.0     to  155.0    

 NO OUTPUT CONTROL FOR STRESS PERIOD    7   TIME STEP    3
RIV   no.    1 value from time series:   101.00     for time:  155.0     to  156.0    
RIV   no.    2 value from time series:   101.00     for time:  155.0     to  156.0    
RIV   no.    3 value from time series:   111.50     for time:  155.0     to  156.0    
RIV   no.    4 value from time series:   111.50     for time:  155.0     to  156.0    
RIV   no.    5 value from time series:   115.10     for time:  155.0     to  156.0    
RIV   no.    6 value from time series:   115.10     for time:  155.0     to  156.0    
RIV   no.    7 value from time series:   104.00     for time:  155.0     to  156.0    
RIV   no.    8 value from time series:   104.00     for time:  155.0     to  156.0    
RIV   no.    9 value from time series:   113.50     for time:  155.0     to  156.0    
RIV   no.   10 value from time series:   113.50     for time:  155.0     to  156.0    
RIV   no.    1 value from time series:   101.00     for time:  155.0     to  156.0    
RIV   no.    2 value from time series:   101.00     for time:  155.0     to  156.0    
RIV   no.    3 value from time series:   111.50     for time:  155.0     to  156.0    
RIV   no.    4 value from time series:   111.50     for time:  155.0     to  156.0    
RIV   no.    5 value from time series:   115.10     for time:  155.0     to  156.0    
RIV   no.    6 value from time series:   115.10     for time:  155.0     to  156.0    
RIV   no.    7 value from time series:   104.00     for time:  155.0     to  156.0    
RIV   no.    8 value from time series:   104.00     for time:  155.0     to  156.0    
RIV   no.    9 value from time series:   113.50     for time:  155.0     to  156.0    
RIV   no.   10 value from time series:   113.50     for time:  155.0     to  156.0    

 NO OUTPUT CONTROL FOR STRESS PERIOD    7   TIME STEP    4
RIV   no.    1 value from time series:   101.00     for time:  156.0     to  157.0    
RIV   no.    2 value from time series:   101.00     for time:  156.0     to  157.0    
RIV   no.    3 value from time series:   111.50     for time:  156.0     to  157.0    
RIV   no.    4 value from time series:   111.50     for time:  156.0     to  157.0    
RIV   no.    5 value from time series:   115.10     for time:  156.0     to  157.0    
RIV   no.    6 value from time series:   115.10     for time:  156.0     to  157.0    
RIV   no.    7 value from time series:   104.00     for time:  156.0     to  157.0    
RIV   no.    8 value from time series:   104.00     for time:  156.0     to  157.0    
RIV   no.    9 value from time series:   113.50     for time:  156.0     to  157.0    
RIV   no.   10 value from time series:   113.50     for time:  156.0     to  157.0    
RIV   no.    1 value from time series:   101.00     for time:  156.0     to  157.0    
RIV   no.    2 value from time series:   101.00     for time:  156.0     to  157.0    
RIV   no.    3 value from time series:   111.50     for time:  156.0     to  157.0    
RIV   no.    4 value from time series:   111.50     for time:  156.0     to  157.0    
RIV   no.    5 value from time series:   115.10     for time:  156.0     to  157.0    
RIV   no.    6 value from time series:   115.10     for time:  156.0     to  157.0    
RIV   no.    7 value from time series:   104.00     for time:  156.0     to  157.0    
RIV   no.    8 value from time series:   104.00     for time:  156.0     to  157.0    
RIV   no.    9 value from time series:   113.50     for time:  156.0     to  157.0    
RIV   no.   10 value from time series:   113.50     for time:  156.0     to  157.0    

 NO OUTPUT CONTROL FOR STRESS PERIOD    7   TIME STEP    5
RIV   no.    1 value from time series:   101.00     for time:  157.0     to  158.0    
RIV   no.    2 value from time series:   101.00     for time:  157.0     to  158.0    
RIV   no.    3 value from time series:   111.50     for time:  157.0     to  158.0    
RIV   no.    4 value from time series:   111.50     for time:  157.0     to  158.0    
RIV   no.    5 value from time series:   115.10     for time:  157.0     to  158.0    
RIV   no.    6 value from time series:   115.10     for time:  157.0     to  158.0    
RIV   no.    7 value from time series:   104.00     for time:  157.0     to  158.0    
RIV   no.    8 value from time series:   104.00     for time:  157.0     to  158.0    
RIV   no.    9 value from time series:   113.50     for time:  157.0     to  158.0    
RIV   no.   10 value from time series:   113.50     for time:  157.0     to  158.0    
RIV   no.    1 value from time series:   101.00     for time:  157.0     to  158.0    
RIV   no.    2 value from time series:   101.00     for time:  157.0     to  158.0    
RIV   no.    3 value from time series:   111.50     for time:  157.0     to  158.0    
RIV   no.    4 value from time series:   111.50     for time:  157.0     to  158.0    
RIV   no.    5 value from time series:   115.10     for time:  157.0     to  158.0    
RIV   no.    6 value from time series:   115.10     for time:  157.0     to  158.0    
RIV   no.    7 value from time series:   104.00     for time:  157.0     to  158.0    
RIV   no.    8 value from time series:   104.00     for time:  157.0     to  158.0    
RIV   no.    9 value from time series:   113.50     for time:  157.0     to  158.0    
RIV   no.   10 value from time series:   113.50     for time:  157.0     to  158.0    

 NO OUTPUT CONTROL FOR STRESS PERIOD    7   TIME STEP    6
RIV   no.    1 value from time series:   101.00     for time:  158.0     to  159.0    
RIV   no.    2 value from time series:   101.00     for time:  158.0     to  159.0    
RIV   no.    3 value from time series:   111.50     for time:  158.0     to  159.0    
RIV   no.    4 value from time series:   111.50     for time:  158.0     to  159.0    
RIV   no.    5 value from time series:   115.10     for time:  158.0     to  159.0    
RIV   no.    6 value from time series:   115.10     for time:  158.0     to  159.0    
RIV   no.    7 value from time series:   104.00     for time:  158.0     to  159.0    
RIV   no.    8 value from time series:   104.00     for time:  158.0     to  159.0    
RIV   no.    9 value from time series:   113.50     for time:  158.0     to  159.0    
RIV   no.   10 value from time series:   113.50     for time:  158.0     to  159.0    
RIV   no.    1 value from time series:   101.00     for time:  158.0     to  159.0    
RIV   no.    2 value from time series:   101.00     for time:  158.0     to  159.0    
RIV   no.    3 value from time series:   111.50     for time:  158.0     to  159.0    
RIV   no.    4 value from time series:   111.50     for time:  158.0     to  159.0    
RIV   no.    5 value from time series:   115.10     for time:  158.0     to  159.0    
RIV   no.    6 value from time series:   115.10     for time:  158.0     to  159.0    
RIV   no.    7 value from time series:   104.00     for time:  158.0     to  159.0    
RIV   no.    8 value from time series:   104.00     for time:  158.0     to  159.0    
RIV   no.    9 value from time series:   113.50     for time:  158.0     to  159.0    
RIV   no.   10 value from time series:   113.50     for time:  158.0     to  159.0    

 NO OUTPUT CONTROL FOR STRESS PERIOD    7   TIME STEP    7
RIV   no.    1 value from time series:   101.00     for time:  159.0     to  160.0    
RIV   no.    2 value from time series:   101.00     for time:  159.0     to  160.0    
RIV   no.    3 value from time series:   111.50     for time:  159.0     to  160.0    
RIV   no.    4 value from time series:   111.50     for time:  159.0     to  160.0    
RIV   no.    5 value from time series:   115.10     for time:  159.0     to  160.0    
RIV   no.    6 value from time series:   115.10     for time:  159.0     to  160.0    
RIV   no.    7 value from time series:   104.00     for time:  159.0     to  160.0    
RIV   no.    8 value from time series:   104.00     for time:  159.0     to  160.0    
RIV   no.    9 value from time series:   113.50     for time:  159.0     to  160.0    
RIV   no.   10 value from time series:   113.50     for time:  159.0     to  160.0    
RIV   no.    1 value from time series:   101.00     for time:  159.0     to  160.0    
RIV   no.    2 value from time series:   101.00     for time:  159.0     to  160.0    
RIV   no.    3 value from time series:   111.50     for time:  159.0     to  160.0    
RIV   no.    4 value from time series:   111.50     for time:  159.0     to  160.0    
RIV   no.    5 value from time series:   115.10     for time:  159.0     to  160.0    
RIV   no.    6 value from time series:   115.10     for time:  159.0     to  160.0    
RIV   no.    7 value from time series:   104.00     for time:  159.0     to  160.0    
RIV   no.    8 value from time series:   104.00     for time:  159.0     to  160.0    
RIV   no.    9 value from time series:   113.50     for time:  159.0     to  160.0    
RIV   no.   10 value from time series:   113.50     for time:  159.0     to  160.0    

 NO OUTPUT CONTROL FOR STRESS PERIOD    7   TIME STEP    8
RIV   no.    1 value from time series:   101.00     for time:  160.0     to  161.0    
RIV   no.    2 value from time series:   101.00     for time:  160.0     to  161.0    
RIV   no.    3 value from time series:   111.50     for time:  160.0     to  161.0    
RIV   no.    4 value from time series:   111.50     for time:  160.0     to  161.0    
RIV   no.    5 value from time series:   115.10     for time:  160.0     to  161.0    
RIV   no.    6 value from time series:   115.10     for time:  160.0     to  161.0    
RIV   no.    7 value from time series:   104.00     for time:  160.0     to  161.0    
RIV   no.    8 value from time series:   104.00     for time:  160.0     to  161.0    
RIV   no.    9 value from time series:   113.50     for time:  160.0     to  161.0    
RIV   no.   10 value from time series:   113.50     for time:  160.0     to  161.0    
RIV   no.    1 value from time series:   101.00     for time:  160.0     to  161.0    
RIV   no.    2 value from time series:   101.00     for time:  160.0     to  161.0    
RIV   no.    3 value from time series:   111.50     for time:  160.0     to  161.0    
RIV   no.    4 value from time series:   111.50     for time:  160.0     to  161.0    
RIV   no.    5 value from time series:   115.10     for time:  160.0     to  161.0    
RIV   no.    6 value from time series:   115.10     for time:  160.0     to  161.0    
RIV   no.    7 value from time series:   104.00     for time:  160.0     to  161.0    
RIV   no.    8 value from time series:   104.00     for time:  160.0     to  161.0    
RIV   no.    9 value from time series:   113.50     for time:  160.0     to  161.0    
RIV   no.   10 value from time series:   113.50     for time:  160.0     to  161.0    

 NO OUTPUT CONTROL FOR STRESS PERIOD    7   TIME STEP    9
RIV   no.    1 value from time series:   101.00     for time:  161.0     to  162.0    
RIV   no.    2 value from time series:   101.00     for time:  161.0     to  162.0    
RIV   no.    3 value from time series:   111.50     for time:  161.0     to  162.0    
RIV   no.    4 value from time series:   111.50     for time:  161.0     to  162.0    
RIV   no.    5 value from time series:   115.10     for time:  161.0     to  162.0    
RIV   no.    6 value from time series:   115.10     for time:  161.0     to  162.0    
RIV   no.    7 value from time series:   104.00     for time:  161.0     to  162.0    
RIV   no.    8 value from time series:   104.00     for time:  161.0     to  162.0    
RIV   no.    9 value from time series:   113.50     for time:  161.0     to  162.0    
RIV   no.   10 value from time series:   113.50     for time:  161.0     to  162.0    
RIV   no.    1 value from time series:   101.00     for time:  161.0     to  162.0    
RIV   no.    2 value from time series:   101.00     for time:  161.0     to  162.0    
RIV   no.    3 value from time series:   111.50     for time:  161.0     to  162.0    
RIV   no.    4 value from time series:   111.50     for time:  161.0     to  162.0    
RIV   no.    5 value from time series:   115.10     for time:  161.0     to  162.0    
RIV   no.    6 value from time series:   115.10     for time:  161.0     to  162.0    
RIV   no.    7 value from time series:   104.00     for time:  161.0     to  162.0    
RIV   no.    8 value from time series:   104.00     for time:  161.0     to  162.0    
RIV   no.    9 value from time series:   113.50     for time:  161.0     to  162.0    
RIV   no.   10 value from time series:   113.50     for time:  161.0     to  162.0    

 NO OUTPUT CONTROL FOR STRESS PERIOD    7   TIME STEP   10
RIV   no.    1 value from time series:   101.00     for time:  162.0     to  163.0    
RIV   no.    2 value from time series:   101.00     for time:  162.0     to  163.0    
RIV   no.    3 value from time series:   111.50     for time:  162.0     to  163.0    
RIV   no.    4 value from time series:   111.50     for time:  162.0     to  163.0    
RIV   no.    5 value from time series:   115.10     for time:  162.0     to  163.0    
RIV   no.    6 value from time series:   115.10     for time:  162.0     to  163.0    
RIV   no.    7 value from time series:   104.00     for time:  162.0     to  163.0    
RIV   no.    8 value from time series:   104.00     for time:  162.0     to  163.0    
RIV   no.    9 value from time series:   113.50     for time:  162.0     to  163.0    
RIV   no.   10 value from time series:   113.50     for time:  162.0     to  163.0    
RIV   no.    1 value from time series:   101.00     for time:  162.0     to  163.0    
RIV   no.    2 value from time series:   101.00     for time:  162.0     to  163.0    
RIV   no.    3 value from time series:   111.50     for time:  162.0     to  163.0    
RIV   no.    4 value from time series:   111.50     for time:  162.0     to  163.0    
RIV   no.    5 value from time series:   115.10     for time:  162.0     to  163.0    
RIV   no.    6 value from time series:   115.10     for time:  162.0     to  163.0    
RIV   no.    7 value from time series:   104.00     for time:  162.0     to  163.0    
RIV   no.    8 value from time series:   104.00     for time:  162.0     to  163.0    
RIV   no.    9 value from time series:   113.50     for time:  162.0     to  163.0    
RIV   no.   10 value from time series:   113.50     for time:  162.0     to  163.0    

 NO OUTPUT CONTROL FOR STRESS PERIOD    7   TIME STEP   11
RIV   no.    1 value from time series:   101.00     for time:  163.0     to  164.0    
RIV   no.    2 value from time series:   101.00     for time:  163.0     to  164.0    
RIV   no.    3 value from time series:   111.50     for time:  163.0     to  164.0    
RIV   no.    4 value from time series:   111.50     for time:  163.0     to  164.0    
RIV   no.    5 value from time series:   115.10     for time:  163.0     to  164.0    
RIV   no.    6 value from time series:   115.10     for time:  163.0     to  164.0    
RIV   no.    7 value from time series:   104.00     for time:  163.0     to  164.0    
RIV   no.    8 value from time series:   104.00     for time:  163.0     to  164.0    
RIV   no.    9 value from time series:   113.50     for time:  163.0     to  164.0    
RIV   no.   10 value from time series:   113.50     for time:  163.0     to  164.0    
RIV   no.    1 value from time series:   101.00     for time:  163.0     to  164.0    
RIV   no.    2 value from time series:   101.00     for time:  163.0     to  164.0    
RIV   no.    3 value from time series:   111.50     for time:  163.0     to  164.0    
RIV   no.    4 value from time series:   111.50     for time:  163.0     to  164.0    
RIV   no.    5 value from time series:   115.10     for time:  163.0     to  164.0    
RIV   no.    6 value from time series:   115.10     for time:  163.0     to  164.0    
RIV   no.    7 value from time series:   104.00     for time:  163.0     to  164.0    
RIV   no.    8 value from time series:   104.00     for time:  163.0     to  164.0    
RIV   no.    9 value from time series:   113.50     for time:  163.0     to  164.0    
RIV   no.   10 value from time series:   113.50     for time:  163.0     to  164.0    

 NO OUTPUT CONTROL FOR STRESS PERIOD    7   TIME STEP   12
RIV   no.    1 value from time series:   101.00     for time:  164.0     to  165.0    
RIV   no.    2 value from time series:   101.00     for time:  164.0     to  165.0    
RIV   no.    3 value from time series:   111.50     for time:  164.0     to  165.0    
RIV   no.    4 value from time series:   111.50     for time:  164.0     to  165.0    
RIV   no.    5 value from time series:   115.10     for time:  164.0     to  165.0    
RIV   no.    6 value from time series:   115.10     for time:  164.0     to  165.0    
RIV   no.    7 value from time series:   104.00     for time:  164.0     to  165.0    
RIV   no.    8 value from time series:   104.00     for time:  164.0     to  165.0    
RIV   no.    9 value from time series:   113.50     for time:  164.0     to  165.0    
RIV   no.   10 value from time series:   113.50     for time:  164.0     to  165.0    
RIV   no.    1 value from time series:   101.00     for time:  164.0     to  165.0    
RIV   no.    2 value from time series:   101.00     for time:  164.0     to  165.0    
RIV   no.    3 value from time series:   111.50     for time:  164.0     to  165.0    
RIV   no.    4 value from time series:   111.50     for time:  164.0     to  165.0    
RIV   no.    5 value from time series:   115.10     for time:  164.0     to  165.0    
RIV   no.    6 value from time series:   115.10     for time:  164.0     to  165.0    
RIV   no.    7 value from time series:   104.00     for time:  164.0     to  165.0    
RIV   no.    8 value from time series:   104.00     for time:  164.0     to  165.0    
RIV   no.    9 value from time series:   113.50     for time:  164.0     to  165.0    
RIV   no.   10 value from time series:   113.50     for time:  164.0     to  165.0    

 NO OUTPUT CONTROL FOR STRESS PERIOD    7   TIME STEP   13
RIV   no.    1 value from time series:   101.00     for time:  165.0     to  166.0    
RIV   no.    2 value from time series:   101.00     for time:  165.0     to  166.0    
RIV   no.    3 value from time series:   111.50     for time:  165.0     to  166.0    
RIV   no.    4 value from time series:   111.50     for time:  165.0     to  166.0    
RIV   no.    5 value from time series:   115.10     for time:  165.0     to  166.0    
RIV   no.    6 value from time series:   115.10     for time:  165.0     to  166.0    
RIV   no.    7 value from time series:   104.00     for time:  165.0     to  166.0    
RIV   no.    8 value from time series:   104.00     for time:  165.0     to  166.0    
RIV   no.    9 value from time series:   113.50     for time:  165.0     to  166.0    
RIV   no.   10 value from time series:   113.50     for time:  165.0     to  166.0    
RIV   no.    1 value from time series:   101.00     for time:  165.0     to  166.0    
RIV   no.    2 value from time series:   101.00     for time:  165.0     to  166.0    
RIV   no.    3 value from time series:   111.50     for time:  165.0     to  166.0    
RIV   no.    4 value from time series:   111.50     for time:  165.0     to  166.0    
RIV   no.    5 value from time series:   115.10     for time:  165.0     to  166.0    
RIV   no.    6 value from time series:   115.10     for time:  165.0     to  166.0    
RIV   no.    7 value from time series:   104.00     for time:  165.0     to  166.0    
RIV   no.    8 value from time series:   104.00     for time:  165.0     to  166.0    
RIV   no.    9 value from time series:   113.50     for time:  165.0     to  166.0    
RIV   no.   10 value from time series:   113.50     for time:  165.0     to  166.0    

 NO OUTPUT CONTROL FOR STRESS PERIOD    7   TIME STEP   14
RIV   no.    1 value from time series:   101.00     for time:  166.0     to  167.0    
RIV   no.    2 value from time series:   101.00     for time:  166.0     to  167.0    
RIV   no.    3 value from time series:   111.50     for time:  166.0     to  167.0    
RIV   no.    4 value from time series:   111.50     for time:  166.0     to  167.0    
RIV   no.    5 value from time series:   115.10     for time:  166.0     to  167.0    
RIV   no.    6 value from time series:   115.10     for time:  166.0     to  167.0    
RIV   no.    7 value from time series:   104.00     for time:  166.0     to  167.0    
RIV   no.    8 value from time series:   104.00     for time:  166.0     to  167.0    
RIV   no.    9 value from time series:   113.50     for time:  166.0     to  167.0    
RIV   no.   10 value from time series:   113.50     for time:  166.0     to  167.0    
RIV   no.    1 value from time series:   101.00     for time:  166.0     to  167.0    
RIV   no.    2 value from time series:   101.00     for time:  166.0     to  167.0    
RIV   no.    3 value from time series:   111.50     for time:  166.0     to  167.0    
RIV   no.    4 value from time series:   111.50     for time:  166.0     to  167.0    
RIV   no.    5 value from time series:   115.10     for time:  166.0     to  167.0    
RIV   no.    6 value from time series:   115.10     for time:  166.0     to  167.0    
RIV   no.    7 value from time series:   104.00     for time:  166.0     to  167.0    
RIV   no.    8 value from time series:   104.00     for time:  166.0     to  167.0    
RIV   no.    9 value from time series:   113.50     for time:  166.0     to  167.0    
RIV   no.   10 value from time series:   113.50     for time:  166.0     to  167.0    

 NO OUTPUT CONTROL FOR STRESS PERIOD    7   TIME STEP   15
RIV   no.    1 value from time series:   101.00     for time:  167.0     to  168.0    
RIV   no.    2 value from time series:   101.00     for time:  167.0     to  168.0    
RIV   no.    3 value from time series:   111.50     for time:  167.0     to  168.0    
RIV   no.    4 value from time series:   111.50     for time:  167.0     to  168.0    
RIV   no.    5 value from time series:   115.10     for time:  167.0     to  168.0    
RIV   no.    6 value from time series:   115.10     for time:  167.0     to  168.0    
RIV   no.    7 value from time series:   104.00     for time:  167.0     to  168.0    
RIV   no.    8 value from time series:   104.00     for time:  167.0     to  168.0    
RIV   no.    9 value from time series:   113.50     for time:  167.0     to  168.0    
RIV   no.   10 value from time series:   113.50     for time:  167.0     to  168.0    
RIV   no.    1 value from time series:   101.00     for time:  167.0     to  168.0    
RIV   no.    2 value from time series:   101.00     for time:  167.0     to  168.0    
RIV   no.    3 value from time series:   111.50     for time:  167.0     to  168.0    
RIV   no.    4 value from time series:   111.50     for time:  167.0     to  168.0    
RIV   no.    5 value from time series:   115.10     for time:  167.0     to  168.0    
RIV   no.    6 value from time series:   115.10     for time:  167.0     to  168.0    
RIV   no.    7 value from time series:   104.00     for time:  167.0     to  168.0    
RIV   no.    8 value from time series:   104.00     for time:  167.0     to  168.0    
RIV   no.    9 value from time series:   113.50     for time:  167.0     to  168.0    
RIV   no.   10 value from time series:   113.50     for time:  167.0     to  168.0    

 NO OUTPUT CONTROL FOR STRESS PERIOD    7   TIME STEP   16
RIV   no.    1 value from time series:   101.00     for time:  168.0     to  169.0    
RIV   no.    2 value from time series:   101.00     for time:  168.0     to  169.0    
RIV   no.    3 value from time series:   111.50     for time:  168.0     to  169.0    
RIV   no.    4 value from time series:   111.50     for time:  168.0     to  169.0    
RIV   no.    5 value from time series:   115.10     for time:  168.0     to  169.0    
RIV   no.    6 value from time series:   115.10     for time:  168.0     to  169.0    
RIV   no.    7 value from time series:   104.00     for time:  168.0     to  169.0    
RIV   no.    8 value from time series:   104.00     for time:  168.0     to  169.0    
RIV   no.    9 value from time series:   113.50     for time:  168.0     to  169.0    
RIV   no.   10 value from time series:   113.50     for time:  168.0     to  169.0    
RIV   no.    1 value from time series:   101.00     for time:  168.0     to  169.0    
RIV   no.    2 value from time series:   101.00     for time:  168.0     to  169.0    
RIV   no.    3 value from time series:   111.50     for time:  168.0     to  169.0    
RIV   no.    4 value from time series:   111.50     for time:  168.0     to  169.0    
RIV   no.    5 value from time series:   115.10     for time:  168.0     to  169.0    
RIV   no.    6 value from time series:   115.10     for time:  168.0     to  169.0    
RIV   no.    7 value from time series:   104.00     for time:  168.0     to  169.0    
RIV   no.    8 value from time series:   104.00     for time:  168.0     to  169.0    
RIV   no.    9 value from time series:   113.50     for time:  168.0     to  169.0    
RIV   no.   10 value from time series:   113.50     for time:  168.0     to  169.0    

 NO OUTPUT CONTROL FOR STRESS PERIOD    7   TIME STEP   17
RIV   no.    1 value from time series:   101.00     for time:  169.0     to  170.0    
RIV   no.    2 value from time series:   101.00     for time:  169.0     to  170.0    
RIV   no.    3 value from time series:   111.50     for time:  169.0     to  170.0    
RIV   no.    4 value from time series:   111.50     for time:  169.0     to  170.0    
RIV   no.    5 value from time series:   115.10     for time:  169.0     to  170.0    
RIV   no.    6 value from time series:   115.10     for time:  169.0     to  170.0    
RIV   no.    7 value from time series:   104.00     for time:  169.0     to  170.0    
RIV   no.    8 value from time series:   104.00     for time:  169.0     to  170.0    
RIV   no.    9 value from time series:   113.50     for time:  169.0     to  170.0    
RIV   no.   10 value from time series:   113.50     for time:  169.0     to  170.0    
RIV   no.    1 value from time series:   101.00     for time:  169.0     to  170.0    
RIV   no.    2 value from time series:   101.00     for time:  169.0     to  170.0    
RIV   no.    3 value from time series:   111.50     for time:  169.0     to  170.0    
RIV   no.    4 value from time series:   111.50     for time:  169.0     to  170.0    
RIV   no.    5 value from time series:   115.10     for time:  169.0     to  170.0    
RIV   no.    6 value from time series:   115.10     for time:  169.0     to  170.0    
RIV   no.    7 value from time series:   104.00     for time:  169.0     to  170.0    
RIV   no.    8 value from time series:   104.00     for time:  169.0     to  170.0    
RIV   no.    9 value from time series:   113.50     for time:  169.0     to  170.0    
RIV   no.   10 value from time series:   113.50     for time:  169.0     to  170.0    

 NO OUTPUT CONTROL FOR STRESS PERIOD    7   TIME STEP   18
RIV   no.    1 value from time series:   101.00     for time:  170.0     to  171.0    
RIV   no.    2 value from time series:   101.00     for time:  170.0     to  171.0    
RIV   no.    3 value from time series:   111.50     for time:  170.0     to  171.0    
RIV   no.    4 value from time series:   111.50     for time:  170.0     to  171.0    
RIV   no.    5 value from time series:   115.10     for time:  170.0     to  171.0    
RIV   no.    6 value from time series:   115.10     for time:  170.0     to  171.0    
RIV   no.    7 value from time series:   104.00     for time:  170.0     to  171.0    
RIV   no.    8 value from time series:   104.00     for time:  170.0     to  171.0    
RIV   no.    9 value from time series:   113.50     for time:  170.0     to  171.0    
RIV   no.   10 value from time series:   113.50     for time:  170.0     to  171.0    
RIV   no.    1 value from time series:   101.00     for time:  170.0     to  171.0    
RIV   no.    2 value from time series:   101.00     for time:  170.0     to  171.0    
RIV   no.    3 value from time series:   111.50     for time:  170.0     to  171.0    
RIV   no.    4 value from time series:   111.50     for time:  170.0     to  171.0    
RIV   no.    5 value from time series:   115.10     for time:  170.0     to  171.0    
RIV   no.    6 value from time series:   115.10     for time:  170.0     to  171.0    
RIV   no.    7 value from time series:   104.00     for time:  170.0     to  171.0    
RIV   no.    8 value from time series:   104.00     for time:  170.0     to  171.0    
RIV   no.    9 value from time series:   113.50     for time:  170.0     to  171.0    
RIV   no.   10 value from time series:   113.50     for time:  170.0     to  171.0    

 NO OUTPUT CONTROL FOR STRESS PERIOD    7   TIME STEP   19
RIV   no.    1 value from time series:   101.00     for time:  171.0     to  172.0    
RIV   no.    2 value from time series:   101.00     for time:  171.0     to  172.0    
RIV   no.    3 value from time series:   111.50     for time:  171.0     to  172.0    
RIV   no.    4 value from time series:   111.50     for time:  171.0     to  172.0    
RIV   no.    5 value from time series:   115.10     for time:  171.0     to  172.0    
RIV   no.    6 value from time series:   115.10     for time:  171.0     to  172.0    
RIV   no.    7 value from time series:   104.00     for time:  171.0     to  172.0    
RIV   no.    8 value from time series:   104.00     for time:  171.0     to  172.0    
RIV   no.    9 value from time series:   113.50     for time:  171.0     to  172.0    
RIV   no.   10 value from time series:   113.50     for time:  171.0     to  172.0    
RIV   no.    1 value from time series:   101.00     for time:  171.0     to  172.0    
RIV   no.    2 value from time series:   101.00     for time:  171.0     to  172.0    
RIV   no.    3 value from time series:   111.50     for time:  171.0     to  172.0    
RIV   no.    4 value from time series:   111.50     for time:  171.0     to  172.0    
RIV   no.    5 value from time series:   115.10     for time:  171.0     to  172.0    
RIV   no.    6 value from time series:   115.10     for time:  171.0     to  172.0    
RIV   no.    7 value from time series:   104.00     for time:  171.0     to  172.0    
RIV   no.    8 value from time series:   104.00     for time:  171.0     to  172.0    
RIV   no.    9 value from time series:   113.50     for time:  171.0     to  172.0    
RIV   no.   10 value from time series:   113.50     for time:  171.0     to  172.0    

 NO OUTPUT CONTROL FOR STRESS PERIOD    7   TIME STEP   20
RIV   no.    1 value from time series:   101.00     for time:  172.0     to  173.0    
RIV   no.    2 value from time series:   101.00     for time:  172.0     to  173.0    
RIV   no.    3 value from time series:   111.50     for time:  172.0     to  173.0    
RIV   no.    4 value from time series:   111.50     for time:  172.0     to  173.0    
RIV   no.    5 value from time series:   115.10     for time:  172.0     to  173.0    
RIV   no.    6 value from time series:   115.10     for time:  172.0     to  173.0    
RIV   no.    7 value from time series:   104.00     for time:  172.0     to  173.0    
RIV   no.    8 value from time series:   104.00     for time:  172.0     to  173.0    
RIV   no.    9 value from time series:   113.50     for time:  172.0     to  173.0    
RIV   no.   10 value from time series:   113.50     for time:  172.0     to  173.0    
RIV   no.    1 value from time series:   101.00     for time:  172.0     to  173.0    
RIV   no.    2 value from time series:   101.00     for time:  172.0     to  173.0    
RIV   no.    3 value from time series:   111.50     for time:  172.0     to  173.0    
RIV   no.    4 value from time series:   111.50     for time:  172.0     to  173.0    
RIV   no.    5 value from time series:   115.10     for time:  172.0     to  173.0    
RIV   no.    6 value from time series:   115.10     for time:  172.0     to  173.0    
RIV   no.    7 value from time series:   104.00     for time:  172.0     to  173.0    
RIV   no.    8 value from time series:   104.00     for time:  172.0     to  173.0    
RIV   no.    9 value from time series:   113.50     for time:  172.0     to  173.0    
RIV   no.   10 value from time series:   113.50     for time:  172.0     to  173.0    

 NO OUTPUT CONTROL FOR STRESS PERIOD    7   TIME STEP   21
RIV   no.    1 value from time series:   101.00     for time:  173.0     to  174.0    
RIV   no.    2 value from time series:   101.00     for time:  173.0     to  174.0    
RIV   no.    3 value from time series:   111.50     for time:  173.0     to  174.0    
RIV   no.    4 value from time series:   111.50     for time:  173.0     to  174.0    
RIV   no.    5 value from time series:   115.10     for time:  173.0     to  174.0    
RIV   no.    6 value from time series:   115.10     for time:  173.0     to  174.0    
RIV   no.    7 value from time series:   104.00     for time:  173.0     to  174.0    
RIV   no.    8 value from time series:   104.00     for time:  173.0     to  174.0    
RIV   no.    9 value from time series:   113.50     for time:  173.0     to  174.0    
RIV   no.   10 value from time series:   113.50     for time:  173.0     to  174.0    
RIV   no.    1 value from time series:   101.00     for time:  173.0     to  174.0    
RIV   no.    2 value from time series:   101.00     for time:  173.0     to  174.0    
RIV   no.    3 value from time series:   111.50     for time:  173.0     to  174.0    
RIV   no.    4 value from time series:   111.50     for time:  173.0     to  174.0    
RIV   no.    5 value from time series:   115.10     for time:  173.0     to  174.0    
RIV   no.    6 value from time series:   115.10     for time:  173.0     to  174.0    
RIV   no.    7 value from time series:   104.00     for time:  173.0     to  174.0    
RIV   no.    8 value from time series:   104.00     for time:  173.0     to  174.0    
RIV   no.    9 value from time series:   113.50     for time:  173.0     to  174.0    
RIV   no.   10 value from time series:   113.50     for time:  173.0     to  174.0    

 NO OUTPUT CONTROL FOR STRESS PERIOD    7   TIME STEP   22
RIV   no.    1 value from time series:   101.00     for time:  174.0     to  175.0    
RIV   no.    2 value from time series:   101.00     for time:  174.0     to  175.0    
RIV   no.    3 value from time series:   111.50     for time:  174.0     to  175.0    
RIV   no.    4 value from time series:   111.50     for time:  174.0     to  175.0    
RIV   no.    5 value from time series:   115.10     for time:  174.0     to  175.0    
RIV   no.    6 value from time series:   115.10     for time:  174.0     to  175.0    
RIV   no.    7 value from time series:   104.00     for time:  174.0     to  175.0    
RIV   no.    8 value from time series:   104.00     for time:  174.0     to  175.0    
RIV   no.    9 value from time series:   113.50     for time:  174.0     to  175.0    
RIV   no.   10 value from time series:   113.50     for time:  174.0     to  175.0    
RIV   no.    1 value from time series:   101.00     for time:  174.0     to  175.0    
RIV   no.    2 value from time series:   101.00     for time:  174.0     to  175.0    
RIV   no.    3 value from time series:   111.50     for time:  174.0     to  175.0    
RIV   no.    4 value from time series:   111.50     for time:  174.0     to  175.0    
RIV   no.    5 value from time series:   115.10     for time:  174.0     to  175.0    
RIV   no.    6 value from time series:   115.10     for time:  174.0     to  175.0    
RIV   no.    7 value from time series:   104.00     for time:  174.0     to  175.0    
RIV   no.    8 value from time series:   104.00     for time:  174.0     to  175.0    
RIV   no.    9 value from time series:   113.50     for time:  174.0     to  175.0    
RIV   no.   10 value from time series:   113.50     for time:  174.0     to  175.0    

 NO OUTPUT CONTROL FOR STRESS PERIOD    7   TIME STEP   23
RIV   no.    1 value from time series:   101.00     for time:  175.0     to  176.0    
RIV   no.    2 value from time series:   101.00     for time:  175.0     to  176.0    
RIV   no.    3 value from time series:   111.50     for time:  175.0     to  176.0    
RIV   no.    4 value from time series:   111.50     for time:  175.0     to  176.0    
RIV   no.    5 value from time series:   115.10     for time:  175.0     to  176.0    
RIV   no.    6 value from time series:   115.10     for time:  175.0     to  176.0    
RIV   no.    7 value from time series:   104.00     for time:  175.0     to  176.0    
RIV   no.    8 value from time series:   104.00     for time:  175.0     to  176.0    
RIV   no.    9 value from time series:   113.50     for time:  175.0     to  176.0    
RIV   no.   10 value from time series:   113.50     for time:  175.0     to  176.0    
RIV   no.    1 value from time series:   101.00     for time:  175.0     to  176.0    
RIV   no.    2 value from time series:   101.00     for time:  175.0     to  176.0    
RIV   no.    3 value from time series:   111.50     for time:  175.0     to  176.0    
RIV   no.    4 value from time series:   111.50     for time:  175.0     to  176.0    
RIV   no.    5 value from time series:   115.10     for time:  175.0     to  176.0    
RIV   no.    6 value from time series:   115.10     for time:  175.0     to  176.0    
RIV   no.    7 value from time series:   104.00     for time:  175.0     to  176.0    
RIV   no.    8 value from time series:   104.00     for time:  175.0     to  176.0    
RIV   no.    9 value from time series:   113.50     for time:  175.0     to  176.0    
RIV   no.   10 value from time series:   113.50     for time:  175.0     to  176.0    

 NO OUTPUT CONTROL FOR STRESS PERIOD    7   TIME STEP   24
RIV   no.    1 value from time series:   101.00     for time:  176.0     to  177.0    
RIV   no.    2 value from time series:   101.00     for time:  176.0     to  177.0    
RIV   no.    3 value from time series:   111.50     for time:  176.0     to  177.0    
RIV   no.    4 value from time series:   111.50     for time:  176.0     to  177.0    
RIV   no.    5 value from time series:   115.10     for time:  176.0     to  177.0    
RIV   no.    6 value from time series:   115.10     for time:  176.0     to  177.0    
RIV   no.    7 value from time series:   104.00     for time:  176.0     to  177.0    
RIV   no.    8 value from time series:   104.00     for time:  176.0     to  177.0    
RIV   no.    9 value from time series:   113.50     for time:  176.0     to  177.0    
RIV   no.   10 value from time series:   113.50     for time:  176.0     to  177.0    
RIV   no.    1 value from time series:   101.00     for time:  176.0     to  177.0    
RIV   no.    2 value from time series:   101.00     for time:  176.0     to  177.0    
RIV   no.    3 value from time series:   111.50     for time:  176.0     to  177.0    
RIV   no.    4 value from time series:   111.50     for time:  176.0     to  177.0    
RIV   no.    5 value from time series:   115.10     for time:  176.0     to  177.0    
RIV   no.    6 value from time series:   115.10     for time:  176.0     to  177.0    
RIV   no.    7 value from time series:   104.00     for time:  176.0     to  177.0    
RIV   no.    8 value from time series:   104.00     for time:  176.0     to  177.0    
RIV   no.    9 value from time series:   113.50     for time:  176.0     to  177.0    
RIV   no.   10 value from time series:   113.50     for time:  176.0     to  177.0    

 NO OUTPUT CONTROL FOR STRESS PERIOD    7   TIME STEP   25
RIV   no.    1 value from time series:   101.00     for time:  177.0     to  178.0    
RIV   no.    2 value from time series:   101.00     for time:  177.0     to  178.0    
RIV   no.    3 value from time series:   111.50     for time:  177.0     to  178.0    
RIV   no.    4 value from time series:   111.50     for time:  177.0     to  178.0    
RIV   no.    5 value from time series:   115.10     for time:  177.0     to  178.0    
RIV   no.    6 value from time series:   115.10     for time:  177.0     to  178.0    
RIV   no.    7 value from time series:   104.00     for time:  177.0     to  178.0    
RIV   no.    8 value from time series:   104.00     for time:  177.0     to  178.0    
RIV   no.    9 value from time series:   113.50     for time:  177.0     to  178.0    
RIV   no.   10 value from time series:   113.50     for time:  177.0     to  178.0    
RIV   no.    1 value from time series:   101.00     for time:  177.0     to  178.0    
RIV   no.    2 value from time series:   101.00     for time:  177.0     to  178.0    
RIV   no.    3 value from time series:   111.50     for time:  177.0     to  178.0    
RIV   no.    4 value from time series:   111.50     for time:  177.0     to  178.0    
RIV   no.    5 value from time series:   115.10     for time:  177.0     to  178.0    
RIV   no.    6 value from time series:   115.10     for time:  177.0     to  178.0    
RIV   no.    7 value from time series:   104.00     for time:  177.0     to  178.0    
RIV   no.    8 value from time series:   104.00     for time:  177.0     to  178.0    
RIV   no.    9 value from time series:   113.50     for time:  177.0     to  178.0    
RIV   no.   10 value from time series:   113.50     for time:  177.0     to  178.0    

 NO OUTPUT CONTROL FOR STRESS PERIOD    7   TIME STEP   26
RIV   no.    1 value from time series:   101.00     for time:  178.0     to  179.0    
RIV   no.    2 value from time series:   101.00     for time:  178.0     to  179.0    
RIV   no.    3 value from time series:   111.50     for time:  178.0     to  179.0    
RIV   no.    4 value from time series:   111.50     for time:  178.0     to  179.0    
RIV   no.    5 value from time series:   115.10     for time:  178.0     to  179.0    
RIV   no.    6 value from time series:   115.10     for time:  178.0     to  179.0    
RIV   no.    7 value from time series:   104.00     for time:  178.0     to  179.0    
RIV   no.    8 value from time series:   104.00     for time:  178.0     to  179.0    
RIV   no.    9 value from time series:   113.50     for time:  178.0     to  179.0    
RIV   no.   10 value from time series:   113.50     for time:  178.0     to  179.0    
RIV   no.    1 value from time series:   101.00     for time:  178.0     to  179.0    
RIV   no.    2 value from time series:   101.00     for time:  178.0     to  179.0    
RIV   no.    3 value from time series:   111.50     for time:  178.0     to  179.0    
RIV   no.    4 value from time series:   111.50     for time:  178.0     to  179.0    
RIV   no.    5 value from time series:   115.10     for time:  178.0     to  179.0    
RIV   no.    6 value from time series:   115.10     for time:  178.0     to  179.0    
RIV   no.    7 value from time series:   104.00     for time:  178.0     to  179.0    
RIV   no.    8 value from time series:   104.00     for time:  178.0     to  179.0    
RIV   no.    9 value from time series:   113.50     for time:  178.0     to  179.0    
RIV   no.   10 value from time series:   113.50     for time:  178.0     to  179.0    

 NO OUTPUT CONTROL FOR STRESS PERIOD    7   TIME STEP   27
RIV   no.    1 value from time series:   101.00     for time:  179.0     to  180.0    
RIV   no.    2 value from time series:   101.00     for time:  179.0     to  180.0    
RIV   no.    3 value from time series:   111.50     for time:  179.0     to  180.0    
RIV   no.    4 value from time series:   111.50     for time:  179.0     to  180.0    
RIV   no.    5 value from time series:   115.10     for time:  179.0     to  180.0    
RIV   no.    6 value from time series:   115.10     for time:  179.0     to  180.0    
RIV   no.    7 value from time series:   104.00     for time:  179.0     to  180.0    
RIV   no.    8 value from time series:   104.00     for time:  179.0     to  180.0    
RIV   no.    9 value from time series:   113.50     for time:  179.0     to  180.0    
RIV   no.   10 value from time series:   113.50     for time:  179.0     to  180.0    
RIV   no.    1 value from time series:   101.00     for time:  179.0     to  180.0    
RIV   no.    2 value from time series:   101.00     for time:  179.0     to  180.0    
RIV   no.    3 value from time series:   111.50     for time:  179.0     to  180.0    
RIV   no.    4 value from time series:   111.50     for time:  179.0     to  180.0    
RIV   no.    5 value from time series:   115.10     for time:  179.0     to  180.0    
RIV   no.    6 value from time series:   115.10     for time:  179.0     to  180.0    
RIV   no.    7 value from time series:   104.00     for time:  179.0     to  180.0    
RIV   no.    8 value from time series:   104.00     for time:  179.0     to  180.0    
RIV   no.    9 value from time series:   113.50     for time:  179.0     to  180.0    
RIV   no.   10 value from time series:   113.50     for time:  179.0     to  180.0    

 NO OUTPUT CONTROL FOR STRESS PERIOD    7   TIME STEP   28
RIV   no.    1 value from time series:   101.00     for time:  180.0     to  181.0    
RIV   no.    2 value from time series:   101.00     for time:  180.0     to  181.0    
RIV   no.    3 value from time series:   111.50     for time:  180.0     to  181.0    
RIV   no.    4 value from time series:   111.50     for time:  180.0     to  181.0    
RIV   no.    5 value from time series:   115.10     for time:  180.0     to  181.0    
RIV   no.    6 value from time series:   115.10     for time:  180.0     to  181.0    
RIV   no.    7 value from time series:   104.00     for time:  180.0     to  181.0    
RIV   no.    8 value from time series:   104.00     for time:  180.0     to  181.0    
RIV   no.    9 value from time series:   113.50     for time:  180.0     to  181.0    
RIV   no.   10 value from time series:   113.50     for time:  180.0     to  181.0    

 RchArraySeries           =  3.000000E-03 FOR LAYER   1
RIV   no.    1 value from time series:   101.00     for time:  180.0     to  181.0    
RIV   no.    2 value from time series:   101.00     for time:  180.0     to  181.0    
RIV   no.    3 value from time series:   111.50     for time:  180.0     to  181.0    
RIV   no.    4 value from time series:   111.50     for time:  180.0     to  181.0    
RIV   no.    5 value from time series:   115.10     for time:  180.0     to  181.0    
RIV   no.    6 value from time series:   115.10     for time:  180.0     to  181.0    
RIV   no.    7 value from time series:   104.00     for time:  180.0     to  181.0    
RIV   no.    8 value from time series:   104.00     for time:  180.0     to  181.0    
RIV   no.    9 value from time series:   113.50     for time:  180.0     to  181.0    
RIV   no.   10 value from time series:   113.50     for time:  180.0     to  181.0    

 NO OUTPUT CONTROL FOR STRESS PERIOD    7   TIME STEP   29
RIV   no.    1 value from time series:   101.00     for time:  181.0     to  182.0    
RIV   no.    2 value from time series:   101.00     for time:  181.0     to  182.0    
RIV   no.    3 value from time series:   111.50     for time:  181.0     to  182.0    
RIV   no.    4 value from time series:   111.50     for time:  181.0     to  182.0    
RIV   no.    5 value from time series:   115.10     for time:  181.0     to  182.0    
RIV   no.    6 value from time series:   115.10     for time:  181.0     to  182.0    
RIV   no.    7 value from time series:   104.00     for time:  181.0     to  182.0    
RIV   no.    8 value from time series:   104.00     for time:  181.0     to  182.0    
RIV   no.    9 value from time series:   113.50     for time:  181.0     to  182.0    
RIV   no.   10 value from time series:   113.50     for time:  181.0     to  182.0    
RIV   no.    1 value from time series:   101.00     for time:  181.0     to  182.0    
RIV   no.    2 value from time series:   101.00     for time:  181.0     to  182.0    
RIV   no.    3 value from time series:   111.50     for time:  181.0     to  182.0    
RIV   no.    4 value from time series:   111.50     for time:  181.0     to  182.0    
RIV   no.    5 value from time series:   115.10     for time:  181.0     to  182.0    
RIV   no.    6 value from time series:   115.10     for time:  181.0     to  182.0    
RIV   no.    7 value from time series:   104.00     for time:  181.0     to  182.0    
RIV   no.    8 value from time series:   104.00     for time:  181.0     to  182.0    
RIV   no.    9 value from time series:   113.50     for time:  181.0     to  182.0    
RIV   no.   10 value from time series:   113.50     for time:  181.0     to  182.0    

 OUTPUT CONTROL FOR STRESS PERIOD    7   TIME STEP   30
    PRINT BUDGET
    PRINT HEAD
    PRINT HEAD FOR ALL LAYERS
    SAVE BUDGET
    SAVE HEAD
    SAVE HEAD FOR ALL LAYERS
 UBDSV1 SAVING          STORAGE ON UNIT   1016 AT TIME STEP     30, STRESS PERIOD      7
 UBDSV1 SAVING FLOW RIGHT FACE  ON UNIT   1016 AT TIME STEP     30, STRESS PERIOD      7
 UBDSV1 SAVING FLOW FRONT FACE  ON UNIT   1016 AT TIME STEP     30, STRESS PERIOD      7
 UBDSV1 SAVING FLOW LOWER FACE  ON UNIT   1016 AT TIME STEP     30, STRESS PERIOD      7
 UBDSV4 SAVING WELLS NEAR RIVER ON UNIT   1016 AT TIME STEP     30, STRESS PERIOD      7
 UBDSV4 SAVING RIVER            ON UNIT   1016 AT TIME STEP     30, STRESS PERIOD      7

 RIVER              PERIOD  7   STEP 30
 BOUNDARY      1   LAYER   1   ROW     1   COL    15   RATE    -5239.71    
 BOUNDARY      2   LAYER   1   ROW     2   COL    15   RATE    -6369.26      RIV2
 BOUNDARY      3   LAYER   1   ROW     3   COL    15   RATE    -2628.98      RIV3
 BOUNDARY      4   LAYER   1   ROW     4   COL    15   RATE    -4096.38    
 BOUNDARY      5   LAYER   1   ROW     5   COL    15   RATE    -2730.15    
 BOUNDARY      6   LAYER   1   ROW     6   COL    15   RATE    -2076.01    
 BOUNDARY      7   LAYER   1   ROW     7   COL    15   RATE    -6571.57      RIVX
 BOUNDARY      8   LAYER   1   ROW     8   COL    15   RATE    -6424.25      RIVX
 BOUNDARY      9   LAYER   1   ROW     9   COL    15   RATE    -2629.43      RIVX
 BOUNDARY     10   LAYER   1   ROW    10   COL    15   RATE    -3539.76    

 GHB LAKES          PERIOD  7   STEP 30
 BOUNDARY      1   LAYER   1   ROW     3   COL     1   RATE    -15440.6    
 BOUNDARY      2   LAYER   1   ROW     7   COL     1   RATE    -2607.34      GHB2_UPPER
 BOUNDARY      3   LAYER   1   ROW     7   COL     1   RATE    -13509.8      GHB2_LOWER
 UBDSV4 SAVING RECHARGE         ON UNIT   1016 AT TIME STEP     30, STRESS PERIOD      7

 RECHARGE           PERIOD  7   STEP 30
 BOUNDARY      1   LAYER   1   ROW     1   COL     1   RATE     920.625    
 BOUNDARY      2   LAYER   1   ROW     1   COL     2   RATE     920.625    
 BOUNDARY      3   LAYER   1   ROW     1   COL     3   RATE     920.625    
 BOUNDARY      4   LAYER   1   ROW     1   COL     4   RATE     920.625    
 BOUNDARY      5   LAYER   1   ROW     1   COL     5   RATE     920.625    
 BOUNDARY      6   LAYER   1   ROW     1   COL     6   RATE     920.625    
 BOUNDARY      7   LAYER   1   ROW     1   COL     7   RATE     920.625    
 BOUNDARY      8   LAYER   1   ROW     1   COL     8   RATE     920.625    
 BOUNDARY      9   LAYER   1   ROW     1   COL     9   RATE     920.625    
 BOUNDARY     10   LAYER   1   ROW     1   COL    10   RATE     920.625    
 BOUNDARY     11   LAYER   1   ROW     1   COL    11   RATE     920.625    
 BOUNDARY     12   LAYER   1   ROW     1   COL    12   RATE     920.625    
 BOUNDARY     13   LAYER   1   ROW     1   COL    13   RATE     920.625    
 BOUNDARY     14   LAYER   1   ROW     1   COL    14   RATE     920.625    
 BOUNDARY     15   LAYER   1   ROW     1   COL    15   RATE     920.625    
 BOUNDARY     16   LAYER   1   ROW     2   COL     1   RATE     920.625    
 BOUNDARY     17   LAYER   1   ROW     2   COL     2   RATE     920.625    
 BOUNDARY     18   LAYER   1   ROW     2   COL     3   RATE     920.625    
 BOUNDARY     19   LAYER   1   ROW     2   COL     4   RATE     920.625    
 BOUNDARY     20   LAYER   1   ROW     2   COL     5   RATE     920.625    
 BOUNDARY     21   LAYER   1   ROW     2   COL     6   RATE     920.625    
 BOUNDARY     22   LAYER   1   ROW     2   COL     7   RATE     920.625    
 BOUNDARY     23   LAYER   1   ROW     2   COL     8   RATE     920.625    
 BOUNDARY     24   LAYER   1   ROW     2   COL     9   RATE     920.625    
 BOUNDARY     25   LAYER   1   ROW     2   COL    10   RATE     920.625    
 BOUNDARY     26   LAYER   1   ROW     2   COL    11   RATE     920.625    
 BOUNDARY     27   LAYER   1   ROW     2   COL    12   RATE     920.625    
 BOUNDARY     28   LAYER   1   ROW     2   COL    13   RATE     920.625    
 BOUNDARY     29   LAYER   1   ROW     2   COL    14   RATE     920.625    
 BOUNDARY     30   LAYER   1   ROW     2   COL    15   RATE     920.625    
 BOUNDARY     31   LAYER   1   ROW     3   COL     1   RATE     920.625    
 BOUNDARY     32   LAYER   1   ROW     3   COL     2   RATE     920.625    
 BOUNDARY     33   LAYER   1   ROW     3   COL     3   RATE     920.625    
 BOUNDARY     34   LAYER   1   ROW     3   COL     4   RATE     920.625    
 BOUNDARY     35   LAYER   1   ROW     3   COL     5   RATE     920.625    
 BOUNDARY     36   LAYER   1   ROW     3   COL     6   RATE     920.625    
 BOUNDARY     37   LAYER   1   ROW     3   COL     7   RATE     920.625    
 BOUNDARY     38   LAYER   1   ROW     3   COL     8   RATE     920.625    
 BOUNDARY     39   LAYER   1   ROW     3   COL     9   RATE     920.625    
 BOUNDARY     40   LAYER   1   ROW     3   COL    10   RATE     920.625    
 BOUNDARY     41   LAYER   1   ROW     3   COL    11   RATE     920.625    
 BOUNDARY     42   LAYER   1   ROW     3   COL    12   RATE     920.625    
 BOUNDARY     43   LAYER   1   ROW     3   COL    13   RATE     920.625    
 BOUNDARY     44   LAYER   1   ROW     3   COL    14   RATE     920.625    
 BOUNDARY     45   LAYER   1   ROW     3   COL    15   RATE     920.625    
 BOUNDARY     46   LAYER   1   ROW     4   COL     1   RATE     920.625    
 BOUNDARY     47   LAYER   1   ROW     4   COL     2   RATE     920.625    
 BOUNDARY     48   LAYER   1   ROW     4   COL     3   RATE     920.625    
 BOUNDARY     49   LAYER   1   ROW     4   COL     4   RATE     920.625    
 BOUNDARY     50   LAYER   1   ROW     4   COL     5   RATE     920.625    
 BOUNDARY     51   LAYER   1   ROW     4   COL     6   RATE     920.625    
 BOUNDARY     52   LAYER   1   ROW     4   COL     7   RATE     920.625    
 BOUNDARY     53   LAYER   1   ROW     4   COL     8   RATE     920.625    
 BOUNDARY     54   LAYER   1   ROW     4   COL     9   RATE     920.625    
 BOUNDARY     55   LAYER   1   ROW     4   COL    10   RATE     920.625    
 BOUNDARY     56   LAYER   1   ROW     4   COL    11   RATE     920.625    
 BOUNDARY     57   LAYER   1   ROW     4   COL    12   RATE     920.625    
 BOUNDARY     58   LAYER   1   ROW     4   COL    13   RATE     920.625    
 BOUNDARY     59   LAYER   1   ROW     4   COL    14   RATE     920.625    
 BOUNDARY     60   LAYER   1   ROW     4   COL    15   RATE     920.625    
 BOUNDARY     61   LAYER   1   ROW     5   COL     1   RATE     920.625    
 BOUNDARY     62   LAYER   1   ROW     5   COL     2   RATE     920.625    
 BOUNDARY     63   LAYER   1   ROW     5   COL     3   RATE     920.625    
 BOUNDARY     64   LAYER   1   ROW     5   COL     4   RATE     920.625    
 BOUNDARY     65   LAYER   1   ROW     5   COL     5   RATE     920.625    
 BOUNDARY     66   LAYER   1   ROW     5   COL     6   RATE     920.625    
 BOUNDARY     67   LAYER   1   ROW     5   COL     7   RATE     920.625    
 BOUNDARY     68   LAYER   1   ROW     5   COL     8   RATE     920.625    
 BOUNDARY     69   LAYER   1   ROW     5   COL     9   RATE     920.625    
 BOUNDARY     70   LAYER   1   ROW     5   COL    10   RATE     920.625    
 BOUNDARY     71   LAYER   1   ROW     5   COL    11   RATE     920.625    
 BOUNDARY     72   LAYER   1   ROW     5   COL    12   RATE     920.625    
 BOUNDARY     73   LAYER   1   ROW     5   COL    13   RATE     920.625    
 BOUNDARY     74   LAYER   1   ROW     5   COL    14   RATE     920.625    
 BOUNDARY     75   LAYER   1   ROW     5   COL    15   RATE     920.625    
 BOUNDARY     76   LAYER   1   ROW     6   COL     1   RATE     920.625    
 BOUNDARY     77   LAYER   1   ROW     6   COL     2   RATE     920.625    
 BOUNDARY     78   LAYER   1   ROW     6   COL     3   RATE     920.625    
 BOUNDARY     79   LAYER   1   ROW     6   COL     4   RATE     920.625    
 BOUNDARY     80   LAYER   1   ROW     6   COL     5   RATE     920.625    
 BOUNDARY     81   LAYER   1   ROW     6   COL     6   RATE     920.625    
 BOUNDARY     82   LAYER   1   ROW     6   COL     7   RATE     920.625    
 BOUNDARY     83   LAYER   1   ROW     6   COL     8   RATE     920.625    
 BOUNDARY     84   LAYER   1   ROW     6   COL     9   RATE     920.625    
 BOUNDARY     85   LAYER   1   ROW     6   COL    10   RATE     920.625    
 BOUNDARY     86   LAYER   1   ROW     6   COL    11   RATE     920.625    
 BOUNDARY     87   LAYER   1   ROW     6   COL    12   RATE     920.625    
 BOUNDARY     88   LAYER   1   ROW     6   COL    13   RATE     920.625    
 BOUNDARY     89   LAYER   1   ROW     6   COL    14   RATE     920.625    
 BOUNDARY     90   LAYER   1   ROW     6   COL    15   RATE     920.625    
 BOUNDARY     91   LAYER   1   ROW     7   COL     1   RATE     920.625    
 BOUNDARY     92   LAYER   1   ROW     7   COL     2   RATE     920.625    
 BOUNDARY     93   LAYER   1   ROW     7   COL     3   RATE     920.625    
 BOUNDARY     94   LAYER   1   ROW     7   COL     4   RATE     920.625    
 BOUNDARY     95   LAYER   1   ROW     7   COL     5   RATE     920.625    
 BOUNDARY     96   LAYER   1   ROW     7   COL     6   RATE     920.625    
 BOUNDARY     97   LAYER   1   ROW     7   COL     7   RATE     920.625    
 BOUNDARY     98   LAYER   1   ROW     7   COL     8   RATE     920.625    
 BOUNDARY     99   LAYER   1   ROW     7   COL     9   RATE     920.625    
 BOUNDARY    100   LAYER   1   ROW     7   COL    10   RATE     920.625    
 BOUNDARY    101   LAYER   1   ROW     7   COL    11   RATE     920.625    
 BOUNDARY    102   LAYER   1   ROW     7   COL    12   RATE     920.625    
 BOUNDARY    103   LAYER   1   ROW     7   COL    13   RATE     920.625    
 BOUNDARY    104   LAYER   1   ROW     7   COL    14   RATE     920.625    
 BOUNDARY    105   LAYER   1   ROW     7   COL    15   RATE     920.625    
 BOUNDARY    106   LAYER   1   ROW     8   COL     1   RATE     920.625    
 BOUNDARY    107   LAYER   1   ROW     8   COL     2   RATE     920.625    
 BOUNDARY    108   LAYER   1   ROW     8   COL     3   RATE     920.625    
 BOUNDARY    109   LAYER   1   ROW     8   COL     4   RATE     920.625    
 BOUNDARY    110   LAYER   1   ROW     8   COL     5   RATE     920.625    
 BOUNDARY    111   LAYER   1   ROW     8   COL     6   RATE     920.625    
 BOUNDARY    112   LAYER   1   ROW     8   COL     7   RATE     920.625    
 BOUNDARY    113   LAYER   1   ROW     8   COL     8   RATE     920.625    
 BOUNDARY    114   LAYER   1   ROW     8   COL     9   RATE     920.625    
 BOUNDARY    115   LAYER   1   ROW     8   COL    10   RATE     920.625    
 BOUNDARY    116   LAYER   1   ROW     8   COL    11   RATE     920.625    
 BOUNDARY    117   LAYER   1   ROW     8   COL    12   RATE     920.625    
 BOUNDARY    118   LAYER   1   ROW     8   COL    13   RATE     920.625    
 BOUNDARY    119   LAYER   1   ROW     8   COL    14   RATE     920.625    
 BOUNDARY    120   LAYER   1   ROW     8   COL    15   RATE     920.625    
 BOUNDARY    121   LAYER   1   ROW     9   COL     1   RATE     920.625    
 BOUNDARY    122   LAYER   1   ROW     9   COL     2   RATE     920.625    
 BOUNDARY    123   LAYER   1   ROW     9   COL     3   RATE     920.625    
 BOUNDARY    124   LAYER   1   ROW     9   COL     4   RATE     920.625    
 BOUNDARY    125   LAYER   1   ROW     9   COL     5   RATE     920.625    
 BOUNDARY    126   LAYER   1   ROW     9   COL     6   RATE     920.625    
 BOUNDARY    127   LAYER   1   ROW     9   COL     7   RATE     920.625    
 BOUNDARY    128   LAYER   1   ROW     9   COL     8   RATE     920.625    
 BOUNDARY    129   LAYER   1   ROW     9   COL     9   RATE     920.625    
 BOUNDARY    130   LAYER   1   ROW     9   COL    10   RATE     920.625    
 BOUNDARY    131   LAYER   1   ROW     9   COL    11   RATE     920.625    
 BOUNDARY    132   LAYER   1   ROW     9   COL    12   RATE     920.625    
 BOUNDARY    133   LAYER   1   ROW     9   COL    13   RATE     920.625    
 BOUNDARY    134   LAYER   1   ROW     9   COL    14   RATE     920.625    
 BOUNDARY    135   LAYER   1   ROW     9   COL    15   RATE     920.625    
 BOUNDARY    136   LAYER   1   ROW    10   COL     1   RATE     920.625    
 BOUNDARY    137   LAYER   1   ROW    10   COL     2   RATE     920.625    
 BOUNDARY    138   LAYER   1   ROW    10   COL     3   RATE     920.625    
 BOUNDARY    139   LAYER   1   ROW    10   COL     4   RATE     920.625    
 BOUNDARY    140   LAYER   1   ROW    10   COL     5   RATE     920.625    
 BOUNDARY    141   LAYER   1   ROW    10   COL     6   RATE     920.625    
 BOUNDARY    142   LAYER   1   ROW    10   COL     7   RATE     920.625    
 BOUNDARY    143   LAYER   1   ROW    10   COL     8   RATE     920.625    
 BOUNDARY    144   LAYER   1   ROW    10   COL     9   RATE     920.625    
 BOUNDARY    145   LAYER   1   ROW    10   COL    10   RATE     920.625    
 BOUNDARY    146   LAYER   1   ROW    10   COL    11   RATE     920.625    
 BOUNDARY    147   LAYER   1   ROW    10   COL    12   RATE     920.625    
 BOUNDARY    148   LAYER   1   ROW    10   COL    13   RATE     920.625    
 BOUNDARY    149   LAYER   1   ROW    10   COL    14   RATE     920.625    
 BOUNDARY    150   LAYER   1   ROW    10   COL    15   RATE     920.625    
 UBDSV4 SAVING ET SEGS          ON UNIT   1016 AT TIME STEP     30, STRESS PERIOD      7

 ET SEGS            PERIOD  7   STEP 30
 BOUNDARY      1   LAYER   1   ROW     1   COL     1   RATE    -5.05218    
 BOUNDARY      2   LAYER   1   ROW     1   COL     2   RATE    -16.4935    
 BOUNDARY      3   LAYER   1   ROW     1   COL     3   RATE   -100.0000    
 BOUNDARY      4   LAYER   1   ROW     1   COL     4   RATE   -100.0000    
 BOUNDARY      5   LAYER   1   ROW     1   COL     5   RATE   -100.0000    
 BOUNDARY      6   LAYER   1   ROW     1   COL     6   RATE   -100.0000    
 BOUNDARY      7   LAYER   1   ROW     1   COL     7   RATE   -100.0000    
 BOUNDARY      8   LAYER   1   ROW     1   COL     8   RATE   -100.0000    
 BOUNDARY      9   LAYER   1   ROW     1   COL     9   RATE   -100.0000    
 BOUNDARY     10   LAYER   1   ROW     1   COL    10   RATE   -100.0000    
 BOUNDARY     11   LAYER   1   ROW     1   COL    11   RATE   -100.0000    
 BOUNDARY     12   LAYER   1   ROW     1   COL    12   RATE    -26.9009    
 BOUNDARY     13   LAYER   1   ROW     1   COL    13   RATE    -2.04587    
 BOUNDARY     14   LAYER   1   ROW     1   COL    14   RATE     0.00000    
 BOUNDARY     15   LAYER   1   ROW     1   COL    15   RATE     0.00000    
 BOUNDARY     16   LAYER   1   ROW     2   COL     1   RATE     0.00000    
 BOUNDARY     17   LAYER   1   ROW     2   COL     2   RATE    -7.35008    
 BOUNDARY     18   LAYER   1   ROW     2   COL     3   RATE    -72.1772    
 BOUNDARY     19   LAYER   1   ROW     2   COL     4   RATE   -100.0000    
 BOUNDARY     20   LAYER   1   ROW     2   COL     5   RATE   -100.0000    
 BOUNDARY     21   LAYER   1   ROW     2   COL     6   RATE   -100.0000    
 BOUNDARY     22   LAYER   1   ROW     2   COL     7   RATE   -100.0000    
 BOUNDARY     23   LAYER   1   ROW     2   COL     8   RATE   -100.0000    
 BOUNDARY     24   LAYER   1   ROW     2   COL     9   RATE   -100.0000    
 BOUNDARY     25   LAYER   1   ROW     2   COL    10   RATE   -100.0000    
 BOUNDARY     26   LAYER   1   ROW     2   COL    11   RATE   -100.0000    
 BOUNDARY     27   LAYER   1   ROW     2   COL    12   RATE    -28.6426    
 BOUNDARY     28   LAYER   1   ROW     2   COL    13   RATE    -3.03110    
 BOUNDARY     29   LAYER   1   ROW     2   COL    14   RATE     0.00000    
 BOUNDARY     30   LAYER   1   ROW     2   COL    15   RATE     0.00000    
 BOUNDARY     31   LAYER   1   ROW     3   COL     1   RATE     0.00000    
 BOUNDARY     32   LAYER   1   ROW     3   COL     2   RATE   -0.297512    
 BOUNDARY     33   LAYER   1   ROW     3   COL     3   RATE    -40.7379    
 BOUNDARY     34   LAYER   1   ROW     3   COL     4   RATE   -100.0000    
 BOUNDARY     35   LAYER   1   ROW     3   COL     5   RATE   -100.0000    
 BOUNDARY     36   LAYER   1   ROW     3   COL     6   RATE   -100.0000    
 BOUNDARY     37   LAYER   1   ROW     3   COL     7   RATE   -100.0000    
 BOUNDARY     38   LAYER   1   ROW     3   COL     8   RATE   -100.0000    
 BOUNDARY     39   LAYER   1   ROW     3   COL     9   RATE   -100.0000    
 BOUNDARY     40   LAYER   1   ROW     3   COL    10   RATE   -100.0000    
 BOUNDARY     41   LAYER   1   ROW     3   COL    11   RATE   -100.0000    
 BOUNDARY     42   LAYER   1   ROW     3   COL    12   RATE    -38.1637    
 BOUNDARY     43   LAYER   1   ROW     3   COL    13   RATE    -4.82065    
 BOUNDARY     44   LAYER   1   ROW     3   COL    14   RATE     0.00000    
 BOUNDARY     45   LAYER   1   ROW     3   COL    15   RATE     0.00000    
 BOUNDARY     46   LAYER   1   ROW     4   COL     1   RATE     0.00000    
 BOUNDARY     47   LAYER   1   ROW     4   COL     2   RATE    -5.82719    
 BOUNDARY     48   LAYER   1   ROW     4   COL     3   RATE    -61.1950    
 BOUNDARY     49   LAYER   1   ROW     4   COL     4   RATE   -100.0000    
 BOUNDARY     50   LAYER   1   ROW     4   COL     5   RATE   -100.0000    
 BOUNDARY     51   LAYER   1   ROW     4   COL     6   RATE   -100.0000    
 BOUNDARY     52   LAYER   1   ROW     4   COL     7   RATE   -100.0000    
 BOUNDARY     53   LAYER   1   ROW     4   COL     8   RATE   -100.0000    
 BOUNDARY     54   LAYER   1   ROW     4   COL     9   RATE   -100.0000    
 BOUNDARY     55   LAYER   1   ROW     4   COL    10   RATE   -100.0000    
 BOUNDARY     56   LAYER   1   ROW     4   COL    11   RATE   -100.0000    
 BOUNDARY     57   LAYER   1   ROW     4   COL    12   RATE    -52.4076    
 BOUNDARY     58   LAYER   1   ROW     4   COL    13   RATE    -6.25926    
 BOUNDARY     59   LAYER   1   ROW     4   COL    14   RATE     0.00000    
 BOUNDARY     60   LAYER   1   ROW     4   COL    15   RATE     0.00000    
 BOUNDARY     61   LAYER   1   ROW     5   COL     1   RATE     0.00000    
 BOUNDARY     62   LAYER   1   ROW     5   COL     2   RATE    -8.85106    
 BOUNDARY     63   LAYER   1   ROW     5   COL     3   RATE    -81.8123    
 BOUNDARY     64   LAYER   1   ROW     5   COL     4   RATE   -100.0000    
 BOUNDARY     65   LAYER   1   ROW     5   COL     5   RATE   -100.0000    
 BOUNDARY     66   LAYER   1   ROW     5   COL     6   RATE   -100.0000    
 BOUNDARY     67   LAYER   1   ROW     5   COL     7   RATE   -100.0000    
 BOUNDARY     68   LAYER   1   ROW     5   COL     8   RATE   -100.0000    
 BOUNDARY     69   LAYER   1   ROW     5   COL     9   RATE   -100.0000    
 BOUNDARY     70   LAYER   1   ROW     5   COL    10   RATE   -100.0000    
 BOUNDARY     71   LAYER   1   ROW     5   COL    11   RATE   -100.0000    
 BOUNDARY     72   LAYER   1   ROW     5   COL    12   RATE    -62.0712    
 BOUNDARY     73   LAYER   1   ROW     5   COL    13   RATE    -7.12634    
 BOUNDARY     74   LAYER   1   ROW     5   COL    14   RATE     0.00000    
 BOUNDARY     75   LAYER   1   ROW     5   COL    15   RATE     0.00000    
 BOUNDARY     76   LAYER   1   ROW     6   COL     1   RATE     0.00000    
 BOUNDARY     77   LAYER   1   ROW     6   COL     2   RATE    -7.33422    
 BOUNDARY     78   LAYER   1   ROW     6   COL     3   RATE    -85.1839    
 BOUNDARY     79   LAYER   1   ROW     6   COL     4   RATE   -100.0000    
 BOUNDARY     80   LAYER   1   ROW     6   COL     5   RATE   -100.0000    
 BOUNDARY     81   LAYER   1   ROW     6   COL     6   RATE   -100.0000    
 BOUNDARY     82   LAYER   1   ROW     6   COL     7   RATE   -100.0000    
 BOUNDARY     83   LAYER   1   ROW     6   COL     8   RATE   -100.0000    
 BOUNDARY     84   LAYER   1   ROW     6   COL     9   RATE   -100.0000    
 BOUNDARY     85   LAYER   1   ROW     6   COL    10   RATE   -100.0000    
 BOUNDARY     86   LAYER   1   ROW     6   COL    11   RATE   -100.0000    
 BOUNDARY     87   LAYER   1   ROW     6   COL    12   RATE    -65.2896    
 BOUNDARY     88   LAYER   1   ROW     6   COL    13   RATE    -7.07318    
 BOUNDARY     89   LAYER   1   ROW     6   COL    14   RATE     0.00000    
 BOUNDARY     90   LAYER   1   ROW     6   COL    15   RATE     0.00000    
 BOUNDARY     91   LAYER   1   ROW     7   COL     1   RATE     0.00000    
 BOUNDARY     92   LAYER   1   ROW     7   COL     2   RATE    -3.63281    
 BOUNDARY     93   LAYER   1   ROW     7   COL     3   RATE    -91.6550    
 BOUNDARY     94   LAYER   1   ROW     7   COL     4   RATE   -100.0000    
 BOUNDARY     95   LAYER   1   ROW     7   COL     5   RATE   -100.0000    
 BOUNDARY     96   LAYER   1   ROW     7   COL     6   RATE   -100.0000    
 BOUNDARY     97   LAYER   1   ROW     7   COL     7   RATE   -100.0000    
 BOUNDARY     98   LAYER   1   ROW     7   COL     8   RATE   -100.0000    
 BOUNDARY     99   LAYER   1   ROW     7   COL     9   RATE   -100.0000    
 BOUNDARY    100   LAYER   1   ROW     7   COL    10   RATE   -100.0000    
 BOUNDARY    101   LAYER   1   ROW     7   COL    11   RATE   -100.0000    
 BOUNDARY    102   LAYER   1   ROW     7   COL    12   RATE    -64.6145    
 BOUNDARY    103   LAYER   1   ROW     7   COL    13   RATE    -6.37067    
 BOUNDARY    104   LAYER   1   ROW     7   COL    14   RATE     0.00000    
 BOUNDARY    105   LAYER   1   ROW     7   COL    15   RATE     0.00000    
 BOUNDARY    106   LAYER   1   ROW     8   COL     1   RATE   -0.939758    
 BOUNDARY    107   LAYER   1   ROW     8   COL     2   RATE    -20.7034    
 BOUNDARY    108   LAYER   1   ROW     8   COL     3   RATE   -100.0000    
 BOUNDARY    109   LAYER   1   ROW     8   COL     4   RATE   -100.0000    
 BOUNDARY    110   LAYER   1   ROW     8   COL     5   RATE   -100.0000    
 BOUNDARY    111   LAYER   1   ROW     8   COL     6   RATE   -100.0000    
 BOUNDARY    112   LAYER   1   ROW     8   COL     7   RATE   -100.0000    
 BOUNDARY    113   LAYER   1   ROW     8   COL     8   RATE   -100.0000    
 BOUNDARY    114   LAYER   1   ROW     8   COL     9   RATE   -100.0000    
 BOUNDARY    115   LAYER   1   ROW     8   COL    10   RATE   -100.0000    
 BOUNDARY    116   LAYER   1   ROW     8   COL    11   RATE   -100.0000    
 BOUNDARY    117   LAYER   1   ROW     8   COL    12   RATE    -66.9408    
 BOUNDARY    118   LAYER   1   ROW     8   COL    13   RATE    -6.42449    
 BOUNDARY    119   LAYER   1   ROW     8   COL    14   RATE     0.00000    
 BOUNDARY    120   LAYER   1   ROW     8   COL    15   RATE     0.00000    
 BOUNDARY    121   LAYER   1   ROW     9   COL     1   RATE    -28.4041    
 BOUNDARY    122   LAYER   1   ROW     9   COL     2   RATE   -100.0000    
 BOUNDARY    123   LAYER   1   ROW     9   COL     3   RATE   -100.0000    
 BOUNDARY    124   LAYER   1   ROW     9   COL     4   RATE   -100.0000    
 BOUNDARY    125   LAYER   1   ROW     9   COL     5   RATE   -100.0000    
 BOUNDARY    126   LAYER   1   ROW     9   COL     6   RATE   -100.0000    
 BOUNDARY    127   LAYER   1   ROW     9   COL     7   RATE   -100.0000    
 BOUNDARY    128   LAYER   1   ROW     9   COL     8   RATE   -100.0000    
 BOUNDARY    129   LAYER   1   ROW     9   COL     9   RATE   -100.0000    
 BOUNDARY    130   LAYER   1   ROW     9   COL    10   RATE   -100.0000    
 BOUNDARY    131   LAYER   1   ROW     9   COL    11   RATE   -100.0000    
 BOUNDARY    132   LAYER   1   ROW     9   COL    12   RATE    -72.9643    
 BOUNDARY    133   LAYER   1   ROW     9   COL    13   RATE    -7.30310    
 BOUNDARY    134   LAYER   1   ROW     9   COL    14   RATE     0.00000    
 BOUNDARY    135   LAYER   1   ROW     9   COL    15   RATE     0.00000    
 BOUNDARY    136   LAYER   1   ROW    10   COL     1   RATE   -100.0000    
 BOUNDARY    137   LAYER   1   ROW    10   COL     2   RATE   -100.0000    
 BOUNDARY    138   LAYER   1   ROW    10   COL     3   RATE   -100.0000    
 BOUNDARY    139   LAYER   1   ROW    10   COL     4   RATE   -100.0000    
 BOUNDARY    140   LAYER   1   ROW    10   COL     5   RATE   -100.0000    
 BOUNDARY    141   LAYER   1   ROW    10   COL     6   RATE   -100.0000    
 BOUNDARY    142   LAYER   1   ROW    10   COL     7   RATE   -100.0000    
 BOUNDARY    143   LAYER   1   ROW    10   COL     8   RATE   -100.0000    
 BOUNDARY    144   LAYER   1   ROW    10   COL     9   RATE   -100.0000    
 BOUNDARY    145   LAYER   1   ROW    10   COL    10   RATE   -100.0000    
 BOUNDARY    146   LAYER   1   ROW    10   COL    11   RATE   -100.0000    
 BOUNDARY    147   LAYER   1   ROW    10   COL    12   RATE    -77.2695    
 BOUNDARY    148   LAYER   1   ROW    10   COL    13   RATE    -7.86347    
 BOUNDARY    149   LAYER   1   ROW    10   COL    14   RATE     0.00000    
 BOUNDARY    150   LAYER   1   ROW    10   COL    15   RATE     0.00000    
1
  HEAD             IN LAYER   1 AT END OF TIME STEP  30 IN STRESS PERIOD    7
  ---------------------------------------------------------------------------

           1       2       3       4       5       6       7       8       9      10      11      12      13      14      15
 ...........................................................................................................................
   1   132.53  135.97  140.01  143.55  146.23  147.97  148.76  148.61  147.49  145.36  142.10  137.54  131.02  121.51  106.23
   2   127.10  133.68  139.21  143.28  146.15  147.97  148.79  148.65  147.55  145.45  142.25  137.80  131.52  122.41  107.36
   3   110.27  130.15  138.31  143.04  146.12  148.00  148.86  148.74  147.66  145.60  142.50  138.23  132.41  124.55  114.12
   4   125.82  132.91  138.89  143.23  146.24  148.12  148.98  148.87  147.81  145.79  142.76  138.64  133.13  125.79  115.58
   5   129.69  134.43  139.48  143.55  146.47  148.31  149.14  149.02  147.96  145.96  142.97  138.92  133.56  126.62  117.82
   6   126.53  133.67  139.58  143.84  146.76  148.55  149.35  149.19  148.12  146.11  143.10  139.01  133.54  126.29  117.16
   7   111.86  131.82  139.76  144.29  147.15  148.86  149.58  149.38  148.27  146.23  143.18  138.99  133.19  124.74  110.53
   8   130.47  136.61  141.60  145.21  147.69  149.20  149.82  149.55  148.40  146.34  143.28  139.06  133.21  124.68  110.37
   9   137.76  140.33  143.43  146.15  148.21  149.52  150.39  149.70  148.51  146.43  143.38  139.23  133.65  126.11  116.11
  10   140.57  142.17  144.46  146.71  148.52  149.73  150.61  149.80  148.57  146.49  143.45  139.35  133.93  126.73  117.00
1
  HEAD             IN LAYER   2 AT END OF TIME STEP  30 IN STRESS PERIOD    7
  ---------------------------------------------------------------------------

           1       2       3       4       5       6       7       8       9      10      11      12      13      14      15
 ...........................................................................................................................
   1   133.37  135.66  138.85  141.93  144.42  146.09  146.85  146.67  145.51  143.33  140.10  135.76  130.33  124.19  118.79
   2   131.54  134.64  138.40  141.76  144.37  146.10  146.88  146.71  145.57  143.42  140.24  135.99  130.73  124.84  119.67
   3   128.86  133.49  137.97  141.64  144.37  146.14  146.95  146.80  145.68  143.58  140.47  136.38  131.39  125.99  121.58
   4   130.87  134.21  138.22  141.78  144.49  146.26  147.08  146.93  145.83  143.76  140.73  136.76  132.00  126.92  122.81
   5   132.10  134.93  138.64  142.06  144.72  146.46  147.25  147.09  145.99  143.94  140.94  137.04  132.38  127.46  123.58
   6   131.75  135.05  138.97  142.42  145.03  146.71  147.45  147.27  146.15  144.09  141.09  137.17  132.46  127.41  123.36
   7   130.74  135.26  139.52  142.93  145.44  147.02  147.69  147.45  146.30  144.22  141.20  137.22  132.36  126.96  122.22
   8   134.69  137.50  140.81  143.73  145.94  147.36  147.94  147.63  146.44  144.34  141.30  137.31  132.43  126.99  122.20
   9   137.98  139.72  142.15  144.52  146.43  147.68  148.19  147.79  146.55  144.44  141.40  137.45  132.69  127.54  123.33
  10   139.68  140.97  142.94  145.00  146.71  147.87  148.33  147.88  146.62  144.49  141.47  137.55  132.88  127.90  123.88

 HEAD WILL BE SAVED ON UNIT 1017 AT END OF TIME STEP   30, STRESS PERIOD    7
1
  VOLUME BUDGET FOR ENTIRE MODEL AT END OF TIME STEP   30, STRESS PERIOD   7
  ------------------------------------------------------------------------------

     CUMULATIVE VOLUME      L**3       RATES FOR THIS TIME STEP      L**3/T
     ------------------                 ------------------------

           IN:                                      IN:
           ---                                      ---
             STORAGE =       53160.3109               STORAGE =           0.0000
    WELLS NEAR RIVER =           0.0000      WELLS NEAR RIVER =           0.0000
               RIVER =           0.0000                 RIVER =           0.0000
           GHB LAKES =           0.0000             GHB LAKES =           0.0000
            RECHARGE =    19739125.0000              RECHARGE =      138093.7500
             ET SEGS =           0.0000               ET SEGS =           0.0000

            TOTAL IN =    19792285.3109              TOTAL IN =      138093.7500

          OUT:                                     OUT:
          ----                                     ----
             STORAGE =     5565326.7937               STORAGE =       54379.2684
    WELLS NEAR RIVER =        5570.0000      WELLS NEAR RIVER =           0.0000
               RIVER =     7031086.5406                 RIVER =       42305.5136
           GHB LAKES =     5495929.7836             GHB LAKES =       31557.7379
            RECHARGE =           0.0000              RECHARGE =           0.0000
             ET SEGS =     1694372.1943               ET SEGS =        9851.2301

           TOTAL OUT =    19792285.3123             TOTAL OUT =      138093.7500

            IN - OUT =      -1.3538E-03              IN - OUT =      -1.9607E-06

 PERCENT DISCREPANCY =          -0.00     PERCENT DISCREPANCY =          -0.00






         TIME SUMMARY AT END OF TIME STEP   30 IN STRESS PERIOD    7
                    SECONDS     MINUTES      HOURS       DAYS        YEARS
                    -----------------------------------------------------------
   TIME STEP LENGTH  86400.      1440.0      24.000     1.00000     2.73785E-03
 STRESS PERIOD TIME 2.59200E+06  43200.      720.00      30.000     8.21355E-02
         TOTAL TIME 1.57248E+07 2.62080E+05  4368.0      182.00     0.49829    
RIV   no.    1 value from time series:   101.00     for time:  182.0     to  183.0    
RIV   no.    2 value from time series:   101.00     for time:  182.0     to  183.0    
RIV   no.    3 value from time series:   111.50     for time:  182.0     to  183.0    
RIV   no.    4 value from time series:   111.50     for time:  182.0     to  183.0    
RIV   no.    5 value from time series:   115.10     for time:  182.0     to  183.0    
RIV   no.    6 value from time series:   115.10     for time:  182.0     to  183.0    
RIV   no.    7 value from time series:   104.00     for time:  182.0     to  183.0    
RIV   no.    8 value from time series:   104.00     for time:  182.0     to  183.0    
RIV   no.    9 value from time series:   113.50     for time:  182.0     to  183.0    
RIV   no.   10 value from time series:   113.50     for time:  182.0     to  183.0    
RIV   no.    1 value from time series:   101.00     for time:  182.0     to  183.0    
RIV   no.    2 value from time series:   101.00     for time:  182.0     to  183.0    
RIV   no.    3 value from time series:   111.50     for time:  182.0     to  183.0    
RIV   no.    4 value from time series:   111.50     for time:  182.0     to  183.0    
RIV   no.    5 value from time series:   115.10     for time:  182.0     to  183.0    
RIV   no.    6 value from time series:   115.10     for time:  182.0     to  183.0    
RIV   no.    7 value from time series:   104.00     for time:  182.0     to  183.0    
RIV   no.    8 value from time series:   104.00     for time:  182.0     to  183.0    
RIV   no.    9 value from time series:   113.50     for time:  182.0     to  183.0    
RIV   no.   10 value from time series:   113.50     for time:  182.0     to  183.0    

 NO OUTPUT CONTROL FOR STRESS PERIOD    7   TIME STEP   31
RIV   no.    1 value from time series:   101.00     for time:  183.0     to  184.0    
RIV   no.    2 value from time series:   101.00     for time:  183.0     to  184.0    
RIV   no.    3 value from time series:   111.50     for time:  183.0     to  184.0    
RIV   no.    4 value from time series:   111.50     for time:  183.0     to  184.0    
RIV   no.    5 value from time series:   115.10     for time:  183.0     to  184.0    
RIV   no.    6 value from time series:   115.10     for time:  183.0     to  184.0    
RIV   no.    7 value from time series:   104.00     for time:  183.0     to  184.0    
RIV   no.    8 value from time series:   104.00     for time:  183.0     to  184.0    
RIV   no.    9 value from time series:   113.50     for time:  183.0     to  184.0    
RIV   no.   10 value from time series:   113.50     for time:  183.0     to  184.0    
RIV   no.    1 value from time series:   101.00     for time:  183.0     to  184.0    
RIV   no.    2 value from time series:   101.00     for time:  183.0     to  184.0    
RIV   no.    3 value from time series:   111.50     for time:  183.0     to  184.0    
RIV   no.    4 value from time series:   111.50     for time:  183.0     to  184.0    
RIV   no.    5 value from time series:   115.10     for time:  183.0     to  184.0    
RIV   no.    6 value from time series:   115.10     for time:  183.0     to  184.0    
RIV   no.    7 value from time series:   104.00     for time:  183.0     to  184.0    
RIV   no.    8 value from time series:   104.00     for time:  183.0     to  184.0    
RIV   no.    9 value from time series:   113.50     for time:  183.0     to  184.0    
RIV   no.   10 value from time series:   113.50     for time:  183.0     to  184.0    

 NO OUTPUT CONTROL FOR STRESS PERIOD    7   TIME STEP   32
RIV   no.    1 value from time series:   101.00     for time:  184.0     to  185.0    
RIV   no.    2 value from time series:   101.00     for time:  184.0     to  185.0    
RIV   no.    3 value from time series:   111.50     for time:  184.0     to  185.0    
RIV   no.    4 value from time series:   111.50     for time:  184.0     to  185.0    
RIV   no.    5 value from time series:   115.10     for time:  184.0     to  185.0    
RIV   no.    6 value from time series:   115.10     for time:  184.0     to  185.0    
RIV   no.    7 value from time series:   104.00     for time:  184.0     to  185.0    
RIV   no.    8 value from time series:   104.00     for time:  184.0     to  185.0    
RIV   no.    9 value from time series:   113.50     for time:  184.0     to  185.0    
RIV   no.   10 value from time series:   113.50     for time:  184.0     to  185.0    
RIV   no.    1 value from time series:   101.00     for time:  184.0     to  185.0    
RIV   no.    2 value from time series:   101.00     for time:  184.0     to  185.0    
RIV   no.    3 value from time series:   111.50     for time:  184.0     to  185.0    
RIV   no.    4 value from time series:   111.50     for time:  184.0     to  185.0    
RIV   no.    5 value from time series:   115.10     for time:  184.0     to  185.0    
RIV   no.    6 value from time series:   115.10     for time:  184.0     to  185.0    
RIV   no.    7 value from time series:   104.00     for time:  184.0     to  185.0    
RIV   no.    8 value from time series:   104.00     for time:  184.0     to  185.0    
RIV   no.    9 value from time series:   113.50     for time:  184.0     to  185.0    
RIV   no.   10 value from time series:   113.50     for time:  184.0     to  185.0    

 NO OUTPUT CONTROL FOR STRESS PERIOD    7   TIME STEP   33
RIV   no.    1 value from time series:   101.00     for time:  185.0     to  186.0    
RIV   no.    2 value from time series:   101.00     for time:  185.0     to  186.0    
RIV   no.    3 value from time series:   111.50     for time:  185.0     to  186.0    
RIV   no.    4 value from time series:   111.50     for time:  185.0     to  186.0    
RIV   no.    5 value from time series:   115.10     for time:  185.0     to  186.0    
RIV   no.    6 value from time series:   115.10     for time:  185.0     to  186.0    
RIV   no.    7 value from time series:   104.00     for time:  185.0     to  186.0    
RIV   no.    8 value from time series:   104.00     for time:  185.0     to  186.0    
RIV   no.    9 value from time series:   113.50     for time:  185.0     to  186.0    
RIV   no.   10 value from time series:   113.50     for time:  185.0     to  186.0    
RIV   no.    1 value from time series:   101.00     for time:  185.0     to  186.0    
RIV   no.    2 value from time series:   101.00     for time:  185.0     to  186.0    
RIV   no.    3 value from time series:   111.50     for time:  185.0     to  186.0    
RIV   no.    4 value from time series:   111.50     for time:  185.0     to  186.0    
RIV   no.    5 value from time series:   115.10     for time:  185.0     to  186.0    
RIV   no.    6 value from time series:   115.10     for time:  185.0     to  186.0    
RIV   no.    7 value from time series:   104.00     for time:  185.0     to  186.0    
RIV   no.    8 value from time series:   104.00     for time:  185.0     to  186.0    
RIV   no.    9 value from time series:   113.50     for time:  185.0     to  186.0    
RIV   no.   10 value from time series:   113.50     for time:  185.0     to  186.0    

 NO OUTPUT CONTROL FOR STRESS PERIOD    7   TIME STEP   34
RIV   no.    1 value from time series:   101.00     for time:  186.0     to  187.0    
RIV   no.    2 value from time series:   101.00     for time:  186.0     to  187.0    
RIV   no.    3 value from time series:   111.50     for time:  186.0     to  187.0    
RIV   no.    4 value from time series:   111.50     for time:  186.0     to  187.0    
RIV   no.    5 value from time series:   115.10     for time:  186.0     to  187.0    
RIV   no.    6 value from time series:   115.10     for time:  186.0     to  187.0    
RIV   no.    7 value from time series:   104.00     for time:  186.0     to  187.0    
RIV   no.    8 value from time series:   104.00     for time:  186.0     to  187.0    
RIV   no.    9 value from time series:   113.50     for time:  186.0     to  187.0    
RIV   no.   10 value from time series:   113.50     for time:  186.0     to  187.0    
RIV   no.    1 value from time series:   101.00     for time:  186.0     to  187.0    
RIV   no.    2 value from time series:   101.00     for time:  186.0     to  187.0    
RIV   no.    3 value from time series:   111.50     for time:  186.0     to  187.0    
RIV   no.    4 value from time series:   111.50     for time:  186.0     to  187.0    
RIV   no.    5 value from time series:   115.10     for time:  186.0     to  187.0    
RIV   no.    6 value from time series:   115.10     for time:  186.0     to  187.0    
RIV   no.    7 value from time series:   104.00     for time:  186.0     to  187.0    
RIV   no.    8 value from time series:   104.00     for time:  186.0     to  187.0    
RIV   no.    9 value from time series:   113.50     for time:  186.0     to  187.0    
RIV   no.   10 value from time series:   113.50     for time:  186.0     to  187.0    

 NO OUTPUT CONTROL FOR STRESS PERIOD    7   TIME STEP   35
RIV   no.    1 value from time series:   101.00     for time:  187.0     to  188.0    
RIV   no.    2 value from time series:   101.00     for time:  187.0     to  188.0    
RIV   no.    3 value from time series:   111.50     for time:  187.0     to  188.0    
RIV   no.    4 value from time series:   111.50     for time:  187.0     to  188.0    
RIV   no.    5 value from time series:   115.10     for time:  187.0     to  188.0    
RIV   no.    6 value from time series:   115.10     for time:  187.0     to  188.0    
RIV   no.    7 value from time series:   104.00     for time:  187.0     to  188.0    
RIV   no.    8 value from time series:   104.00     for time:  187.0     to  188.0    
RIV   no.    9 value from time series:   113.50     for time:  187.0     to  188.0    
RIV   no.   10 value from time series:   113.50     for time:  187.0     to  188.0    
RIV   no.    1 value from time series:   101.00     for time:  187.0     to  188.0    
RIV   no.    2 value from time series:   101.00     for time:  187.0     to  188.0    
RIV   no.    3 value from time series:   111.50     for time:  187.0     to  188.0    
RIV   no.    4 value from time series:   111.50     for time:  187.0     to  188.0    
RIV   no.    5 value from time series:   115.10     for time:  187.0     to  188.0    
RIV   no.    6 value from time series:   115.10     for time:  187.0     to  188.0    
RIV   no.    7 value from time series:   104.00     for time:  187.0     to  188.0    
RIV   no.    8 value from time series:   104.00     for time:  187.0     to  188.0    
RIV   no.    9 value from time series:   113.50     for time:  187.0     to  188.0    
RIV   no.   10 value from time series:   113.50     for time:  187.0     to  188.0    

 NO OUTPUT CONTROL FOR STRESS PERIOD    7   TIME STEP   36
RIV   no.    1 value from time series:   101.00     for time:  188.0     to  189.0    
RIV   no.    2 value from time series:   101.00     for time:  188.0     to  189.0    
RIV   no.    3 value from time series:   111.50     for time:  188.0     to  189.0    
RIV   no.    4 value from time series:   111.50     for time:  188.0     to  189.0    
RIV   no.    5 value from time series:   115.10     for time:  188.0     to  189.0    
RIV   no.    6 value from time series:   115.10     for time:  188.0     to  189.0    
RIV   no.    7 value from time series:   104.00     for time:  188.0     to  189.0    
RIV   no.    8 value from time series:   104.00     for time:  188.0     to  189.0    
RIV   no.    9 value from time series:   113.50     for time:  188.0     to  189.0    
RIV   no.   10 value from time series:   113.50     for time:  188.0     to  189.0    
RIV   no.    1 value from time series:   101.00     for time:  188.0     to  189.0    
RIV   no.    2 value from time series:   101.00     for time:  188.0     to  189.0    
RIV   no.    3 value from time series:   111.50     for time:  188.0     to  189.0    
RIV   no.    4 value from time series:   111.50     for time:  188.0     to  189.0    
RIV   no.    5 value from time series:   115.10     for time:  188.0     to  189.0    
RIV   no.    6 value from time series:   115.10     for time:  188.0     to  189.0    
RIV   no.    7 value from time series:   104.00     for time:  188.0     to  189.0    
RIV   no.    8 value from time series:   104.00     for time:  188.0     to  189.0    
RIV   no.    9 value from time series:   113.50     for time:  188.0     to  189.0    
RIV   no.   10 value from time series:   113.50     for time:  188.0     to  189.0    

 NO OUTPUT CONTROL FOR STRESS PERIOD    7   TIME STEP   37
RIV   no.    1 value from time series:   101.00     for time:  189.0     to  190.0    
RIV   no.    2 value from time series:   101.00     for time:  189.0     to  190.0    
RIV   no.    3 value from time series:   111.50     for time:  189.0     to  190.0    
RIV   no.    4 value from time series:   111.50     for time:  189.0     to  190.0    
RIV   no.    5 value from time series:   115.10     for time:  189.0     to  190.0    
RIV   no.    6 value from time series:   115.10     for time:  189.0     to  190.0    
RIV   no.    7 value from time series:   104.00     for time:  189.0     to  190.0    
RIV   no.    8 value from time series:   104.00     for time:  189.0     to  190.0    
RIV   no.    9 value from time series:   113.50     for time:  189.0     to  190.0    
RIV   no.   10 value from time series:   113.50     for time:  189.0     to  190.0    
RIV   no.    1 value from time series:   101.00     for time:  189.0     to  190.0    
RIV   no.    2 value from time series:   101.00     for time:  189.0     to  190.0    
RIV   no.    3 value from time series:   111.50     for time:  189.0     to  190.0    
RIV   no.    4 value from time series:   111.50     for time:  189.0     to  190.0    
RIV   no.    5 value from time series:   115.10     for time:  189.0     to  190.0    
RIV   no.    6 value from time series:   115.10     for time:  189.0     to  190.0    
RIV   no.    7 value from time series:   104.00     for time:  189.0     to  190.0    
RIV   no.    8 value from time series:   104.00     for time:  189.0     to  190.0    
RIV   no.    9 value from time series:   113.50     for time:  189.0     to  190.0    
RIV   no.   10 value from time series:   113.50     for time:  189.0     to  190.0    

 NO OUTPUT CONTROL FOR STRESS PERIOD    7   TIME STEP   38
RIV   no.    1 value from time series:   101.00     for time:  190.0     to  191.0    
RIV   no.    2 value from time series:   101.00     for time:  190.0     to  191.0    
RIV   no.    3 value from time series:   111.50     for time:  190.0     to  191.0    
RIV   no.    4 value from time series:   111.50     for time:  190.0     to  191.0    
RIV   no.    5 value from time series:   115.10     for time:  190.0     to  191.0    
RIV   no.    6 value from time series:   115.10     for time:  190.0     to  191.0    
RIV   no.    7 value from time series:   104.00     for time:  190.0     to  191.0    
RIV   no.    8 value from time series:   104.00     for time:  190.0     to  191.0    
RIV   no.    9 value from time series:   113.50     for time:  190.0     to  191.0    
RIV   no.   10 value from time series:   113.50     for time:  190.0     to  191.0    
RIV   no.    1 value from time series:   101.00     for time:  190.0     to  191.0    
RIV   no.    2 value from time series:   101.00     for time:  190.0     to  191.0    
RIV   no.    3 value from time series:   111.50     for time:  190.0     to  191.0    
RIV   no.    4 value from time series:   111.50     for time:  190.0     to  191.0    
RIV   no.    5 value from time series:   115.10     for time:  190.0     to  191.0    
RIV   no.    6 value from time series:   115.10     for time:  190.0     to  191.0    
RIV   no.    7 value from time series:   104.00     for time:  190.0     to  191.0    
RIV   no.    8 value from time series:   104.00     for time:  190.0     to  191.0    
RIV   no.    9 value from time series:   113.50     for time:  190.0     to  191.0    
RIV   no.   10 value from time series:   113.50     for time:  190.0     to  191.0    

 NO OUTPUT CONTROL FOR STRESS PERIOD    7   TIME STEP   39
RIV   no.    1 value from time series:   101.00     for time:  191.0     to  192.0    
RIV   no.    2 value from time series:   101.00     for time:  191.0     to  192.0    
RIV   no.    3 value from time series:   111.50     for time:  191.0     to  192.0    
RIV   no.    4 value from time series:   111.50     for time:  191.0     to  192.0    
RIV   no.    5 value from time series:   115.10     for time:  191.0     to  192.0    
RIV   no.    6 value from time series:   115.10     for time:  191.0     to  192.0    
RIV   no.    7 value from time series:   104.00     for time:  191.0     to  192.0    
RIV   no.    8 value from time series:   104.00     for time:  191.0     to  192.0    
RIV   no.    9 value from time series:   113.50     for time:  191.0     to  192.0    
RIV   no.   10 value from time series:   113.50     for time:  191.0     to  192.0    
RIV   no.    1 value from time series:   101.00     for time:  191.0     to  192.0    
RIV   no.    2 value from time series:   101.00     for time:  191.0     to  192.0    
RIV   no.    3 value from time series:   111.50     for time:  191.0     to  192.0    
RIV   no.    4 value from time series:   111.50     for time:  191.0     to  192.0    
RIV   no.    5 value from time series:   115.10     for time:  191.0     to  192.0    
RIV   no.    6 value from time series:   115.10     for time:  191.0     to  192.0    
RIV   no.    7 value from time series:   104.00     for time:  191.0     to  192.0    
RIV   no.    8 value from time series:   104.00     for time:  191.0     to  192.0    
RIV   no.    9 value from time series:   113.50     for time:  191.0     to  192.0    
RIV   no.   10 value from time series:   113.50     for time:  191.0     to  192.0    

 NO OUTPUT CONTROL FOR STRESS PERIOD    7   TIME STEP   40
RIV   no.    1 value from time series:   101.00     for time:  192.0     to  193.0    
RIV   no.    2 value from time series:   101.00     for time:  192.0     to  193.0    
RIV   no.    3 value from time series:   111.50     for time:  192.0     to  193.0    
RIV   no.    4 value from time series:   111.50     for time:  192.0     to  193.0    
RIV   no.    5 value from time series:   115.10     for time:  192.0     to  193.0    
RIV   no.    6 value from time series:   115.10     for time:  192.0     to  193.0    
RIV   no.    7 value from time series:   104.00     for time:  192.0     to  193.0    
RIV   no.    8 value from time series:   104.00     for time:  192.0     to  193.0    
RIV   no.    9 value from time series:   113.50     for time:  192.0     to  193.0    
RIV   no.   10 value from time series:   113.50     for time:  192.0     to  193.0    
RIV   no.    1 value from time series:   101.00     for time:  192.0     to  193.0    
RIV   no.    2 value from time series:   101.00     for time:  192.0     to  193.0    
RIV   no.    3 value from time series:   111.50     for time:  192.0     to  193.0    
RIV   no.    4 value from time series:   111.50     for time:  192.0     to  193.0    
RIV   no.    5 value from time series:   115.10     for time:  192.0     to  193.0    
RIV   no.    6 value from time series:   115.10     for time:  192.0     to  193.0    
RIV   no.    7 value from time series:   104.00     for time:  192.0     to  193.0    
RIV   no.    8 value from time series:   104.00     for time:  192.0     to  193.0    
RIV   no.    9 value from time series:   113.50     for time:  192.0     to  193.0    
RIV   no.   10 value from time series:   113.50     for time:  192.0     to  193.0    

 NO OUTPUT CONTROL FOR STRESS PERIOD    7   TIME STEP   41
RIV   no.    1 value from time series:   101.00     for time:  193.0     to  194.0    
RIV   no.    2 value from time series:   101.00     for time:  193.0     to  194.0    
RIV   no.    3 value from time series:   111.50     for time:  193.0     to  194.0    
RIV   no.    4 value from time series:   111.50     for time:  193.0     to  194.0    
RIV   no.    5 value from time series:   115.10     for time:  193.0     to  194.0    
RIV   no.    6 value from time series:   115.10     for time:  193.0     to  194.0    
RIV   no.    7 value from time series:   104.00     for time:  193.0     to  194.0    
RIV   no.    8 value from time series:   104.00     for time:  193.0     to  194.0    
RIV   no.    9 value from time series:   113.50     for time:  193.0     to  194.0    
RIV   no.   10 value from time series:   113.50     for time:  193.0     to  194.0    
RIV   no.    1 value from time series:   101.00     for time:  193.0     to  194.0    
RIV   no.    2 value from time series:   101.00     for time:  193.0     to  194.0    
RIV   no.    3 value from time series:   111.50     for time:  193.0     to  194.0    
RIV   no.    4 value from time series:   111.50     for time:  193.0     to  194.0    
RIV   no.    5 value from time series:   115.10     for time:  193.0     to  194.0    
RIV   no.    6 value from time series:   115.10     for time:  193.0     to  194.0    
RIV   no.    7 value from time series:   104.00     for time:  193.0     to  194.0    
RIV   no.    8 value from time series:   104.00     for time:  193.0     to  194.0    
RIV   no.    9 value from time series:   113.50     for time:  193.0     to  194.0    
RIV   no.   10 value from time series:   113.50     for time:  193.0     to  194.0    

 NO OUTPUT CONTROL FOR STRESS PERIOD    7   TIME STEP   42
RIV   no.    1 value from time series:   101.00     for time:  194.0     to  195.0    
RIV   no.    2 value from time series:   101.00     for time:  194.0     to  195.0    
RIV   no.    3 value from time series:   111.50     for time:  194.0     to  195.0    
RIV   no.    4 value from time series:   111.50     for time:  194.0     to  195.0    
RIV   no.    5 value from time series:   115.10     for time:  194.0     to  195.0    
RIV   no.    6 value from time series:   115.10     for time:  194.0     to  195.0    
RIV   no.    7 value from time series:   104.00     for time:  194.0     to  195.0    
RIV   no.    8 value from time series:   104.00     for time:  194.0     to  195.0    
RIV   no.    9 value from time series:   113.50     for time:  194.0     to  195.0    
RIV   no.   10 value from time series:   113.50     for time:  194.0     to  195.0    
RIV   no.    1 value from time series:   101.00     for time:  194.0     to  195.0    
RIV   no.    2 value from time series:   101.00     for time:  194.0     to  195.0    
RIV   no.    3 value from time series:   111.50     for time:  194.0     to  195.0    
RIV   no.    4 value from time series:   111.50     for time:  194.0     to  195.0    
RIV   no.    5 value from time series:   115.10     for time:  194.0     to  195.0    
RIV   no.    6 value from time series:   115.10     for time:  194.0     to  195.0    
RIV   no.    7 value from time series:   104.00     for time:  194.0     to  195.0    
RIV   no.    8 value from time series:   104.00     for time:  194.0     to  195.0    
RIV   no.    9 value from time series:   113.50     for time:  194.0     to  195.0    
RIV   no.   10 value from time series:   113.50     for time:  194.0     to  195.0    

 NO OUTPUT CONTROL FOR STRESS PERIOD    7   TIME STEP   43
RIV   no.    1 value from time series:   101.00     for time:  195.0     to  196.0    
RIV   no.    2 value from time series:   101.00     for time:  195.0     to  196.0    
RIV   no.    3 value from time series:   111.50     for time:  195.0     to  196.0    
RIV   no.    4 value from time series:   111.50     for time:  195.0     to  196.0    
RIV   no.    5 value from time series:   115.10     for time:  195.0     to  196.0    
RIV   no.    6 value from time series:   115.10     for time:  195.0     to  196.0    
RIV   no.    7 value from time series:   104.00     for time:  195.0     to  196.0    
RIV   no.    8 value from time series:   104.00     for time:  195.0     to  196.0    
RIV   no.    9 value from time series:   113.50     for time:  195.0     to  196.0    
RIV   no.   10 value from time series:   113.50     for time:  195.0     to  196.0    
RIV   no.    1 value from time series:   101.00     for time:  195.0     to  196.0    
RIV   no.    2 value from time series:   101.00     for time:  195.0     to  196.0    
RIV   no.    3 value from time series:   111.50     for time:  195.0     to  196.0    
RIV   no.    4 value from time series:   111.50     for time:  195.0     to  196.0    
RIV   no.    5 value from time series:   115.10     for time:  195.0     to  196.0    
RIV   no.    6 value from time series:   115.10     for time:  195.0     to  196.0    
RIV   no.    7 value from time series:   104.00     for time:  195.0     to  196.0    
RIV   no.    8 value from time series:   104.00     for time:  195.0     to  196.0    
RIV   no.    9 value from time series:   113.50     for time:  195.0     to  196.0    
RIV   no.   10 value from time series:   113.50     for time:  195.0     to  196.0    

 NO OUTPUT CONTROL FOR STRESS PERIOD    7   TIME STEP   44
RIV   no.    1 value from time series:   101.00     for time:  196.0     to  197.0    
RIV   no.    2 value from time series:   101.00     for time:  196.0     to  197.0    
RIV   no.    3 value from time series:   111.50     for time:  196.0     to  197.0    
RIV   no.    4 value from time series:   111.50     for time:  196.0     to  197.0    
RIV   no.    5 value from time series:   115.10     for time:  196.0     to  197.0    
RIV   no.    6 value from time series:   115.10     for time:  196.0     to  197.0    
RIV   no.    7 value from time series:   104.00     for time:  196.0     to  197.0    
RIV   no.    8 value from time series:   104.00     for time:  196.0     to  197.0    
RIV   no.    9 value from time series:   113.50     for time:  196.0     to  197.0    
RIV   no.   10 value from time series:   113.50     for time:  196.0     to  197.0    
RIV   no.    1 value from time series:   101.00     for time:  196.0     to  197.0    
RIV   no.    2 value from time series:   101.00     for time:  196.0     to  197.0    
RIV   no.    3 value from time series:   111.50     for time:  196.0     to  197.0    
RIV   no.    4 value from time series:   111.50     for time:  196.0     to  197.0    
RIV   no.    5 value from time series:   115.10     for time:  196.0     to  197.0    
RIV   no.    6 value from time series:   115.10     for time:  196.0     to  197.0    
RIV   no.    7 value from time series:   104.00     for time:  196.0     to  197.0    
RIV   no.    8 value from time series:   104.00     for time:  196.0     to  197.0    
RIV   no.    9 value from time series:   113.50     for time:  196.0     to  197.0    
RIV   no.   10 value from time series:   113.50     for time:  196.0     to  197.0    

 NO OUTPUT CONTROL FOR STRESS PERIOD    7   TIME STEP   45
RIV   no.    1 value from time series:   101.00     for time:  197.0     to  198.0    
RIV   no.    2 value from time series:   101.00     for time:  197.0     to  198.0    
RIV   no.    3 value from time series:   111.50     for time:  197.0     to  198.0    
RIV   no.    4 value from time series:   111.50     for time:  197.0     to  198.0    
RIV   no.    5 value from time series:   115.10     for time:  197.0     to  198.0    
RIV   no.    6 value from time series:   115.10     for time:  197.0     to  198.0    
RIV   no.    7 value from time series:   104.00     for time:  197.0     to  198.0    
RIV   no.    8 value from time series:   104.00     for time:  197.0     to  198.0    
RIV   no.    9 value from time series:   113.50     for time:  197.0     to  198.0    
RIV   no.   10 value from time series:   113.50     for time:  197.0     to  198.0    
RIV   no.    1 value from time series:   101.00     for time:  197.0     to  198.0    
RIV   no.    2 value from time series:   101.00     for time:  197.0     to  198.0    
RIV   no.    3 value from time series:   111.50     for time:  197.0     to  198.0    
RIV   no.    4 value from time series:   111.50     for time:  197.0     to  198.0    
RIV   no.    5 value from time series:   115.10     for time:  197.0     to  198.0    
RIV   no.    6 value from time series:   115.10     for time:  197.0     to  198.0    
RIV   no.    7 value from time series:   104.00     for time:  197.0     to  198.0    
RIV   no.    8 value from time series:   104.00     for time:  197.0     to  198.0    
RIV   no.    9 value from time series:   113.50     for time:  197.0     to  198.0    
RIV   no.   10 value from time series:   113.50     for time:  197.0     to  198.0    

 NO OUTPUT CONTROL FOR STRESS PERIOD    7   TIME STEP   46
RIV   no.    1 value from time series:   101.00     for time:  198.0     to  199.0    
RIV   no.    2 value from time series:   101.00     for time:  198.0     to  199.0    
RIV   no.    3 value from time series:   111.50     for time:  198.0     to  199.0    
RIV   no.    4 value from time series:   111.50     for time:  198.0     to  199.0    
RIV   no.    5 value from time series:   115.10     for time:  198.0     to  199.0    
RIV   no.    6 value from time series:   115.10     for time:  198.0     to  199.0    
RIV   no.    7 value from time series:   104.00     for time:  198.0     to  199.0    
RIV   no.    8 value from time series:   104.00     for time:  198.0     to  199.0    
RIV   no.    9 value from time series:   113.50     for time:  198.0     to  199.0    
RIV   no.   10 value from time series:   113.50     for time:  198.0     to  199.0    
RIV   no.    1 value from time series:   101.00     for time:  198.0     to  199.0    
RIV   no.    2 value from time series:   101.00     for time:  198.0     to  199.0    
RIV   no.    3 value from time series:   111.50     for time:  198.0     to  199.0    
RIV   no.    4 value from time series:   111.50     for time:  198.0     to  199.0    
RIV   no.    5 value from time series:   115.10     for time:  198.0     to  199.0    
RIV   no.    6 value from time series:   115.10     for time:  198.0     to  199.0    
RIV   no.    7 value from time series:   104.00     for time:  198.0     to  199.0    
RIV   no.    8 value from time series:   104.00     for time:  198.0     to  199.0    
RIV   no.    9 value from time series:   113.50     for time:  198.0     to  199.0    
RIV   no.   10 value from time series:   113.50     for time:  198.0     to  199.0    

 NO OUTPUT CONTROL FOR STRESS PERIOD    7   TIME STEP   47
RIV   no.    1 value from time series:   101.00     for time:  199.0     to  200.0    
RIV   no.    2 value from time series:   101.00     for time:  199.0     to  200.0    
RIV   no.    3 value from time series:   111.50     for time:  199.0     to  200.0    
RIV   no.    4 value from time series:   111.50     for time:  199.0     to  200.0    
RIV   no.    5 value from time series:   115.10     for time:  199.0     to  200.0    
RIV   no.    6 value from time series:   115.10     for time:  199.0     to  200.0    
RIV   no.    7 value from time series:   104.00     for time:  199.0     to  200.0    
RIV   no.    8 value from time series:   104.00     for time:  199.0     to  200.0    
RIV   no.    9 value from time series:   113.50     for time:  199.0     to  200.0    
RIV   no.   10 value from time series:   113.50     for time:  199.0     to  200.0    
RIV   no.    1 value from time series:   101.00     for time:  199.0     to  200.0    
RIV   no.    2 value from time series:   101.00     for time:  199.0     to  200.0    
RIV   no.    3 value from time series:   111.50     for time:  199.0     to  200.0    
RIV   no.    4 value from time series:   111.50     for time:  199.0     to  200.0    
RIV   no.    5 value from time series:   115.10     for time:  199.0     to  200.0    
RIV   no.    6 value from time series:   115.10     for time:  199.0     to  200.0    
RIV   no.    7 value from time series:   104.00     for time:  199.0     to  200.0    
RIV   no.    8 value from time series:   104.00     for time:  199.0     to  200.0    
RIV   no.    9 value from time series:   113.50     for time:  199.0     to  200.0    
RIV   no.   10 value from time series:   113.50     for time:  199.0     to  200.0    

 NO OUTPUT CONTROL FOR STRESS PERIOD    7   TIME STEP   48
RIV   no.    1 value from time series:   101.00     for time:  200.0     to  201.0    
RIV   no.    2 value from time series:   101.00     for time:  200.0     to  201.0    
RIV   no.    3 value from time series:   111.50     for time:  200.0     to  201.0    
RIV   no.    4 value from time series:   111.50     for time:  200.0     to  201.0    
RIV   no.    5 value from time series:   115.10     for time:  200.0     to  201.0    
RIV   no.    6 value from time series:   115.10     for time:  200.0     to  201.0    
RIV   no.    7 value from time series:   104.00     for time:  200.0     to  201.0    
RIV   no.    8 value from time series:   104.00     for time:  200.0     to  201.0    
RIV   no.    9 value from time series:   113.50     for time:  200.0     to  201.0    
RIV   no.   10 value from time series:   113.50     for time:  200.0     to  201.0    
RIV   no.    1 value from time series:   101.00     for time:  200.0     to  201.0    
RIV   no.    2 value from time series:   101.00     for time:  200.0     to  201.0    
RIV   no.    3 value from time series:   111.50     for time:  200.0     to  201.0    
RIV   no.    4 value from time series:   111.50     for time:  200.0     to  201.0    
RIV   no.    5 value from time series:   115.10     for time:  200.0     to  201.0    
RIV   no.    6 value from time series:   115.10     for time:  200.0     to  201.0    
RIV   no.    7 value from time series:   104.00     for time:  200.0     to  201.0    
RIV   no.    8 value from time series:   104.00     for time:  200.0     to  201.0    
RIV   no.    9 value from time series:   113.50     for time:  200.0     to  201.0    
RIV   no.   10 value from time series:   113.50     for time:  200.0     to  201.0    

 NO OUTPUT CONTROL FOR STRESS PERIOD    7   TIME STEP   49
RIV   no.    1 value from time series:   101.00     for time:  201.0     to  202.0    
RIV   no.    2 value from time series:   101.00     for time:  201.0     to  202.0    
RIV   no.    3 value from time series:   111.50     for time:  201.0     to  202.0    
RIV   no.    4 value from time series:   111.50     for time:  201.0     to  202.0    
RIV   no.    5 value from time series:   115.10     for time:  201.0     to  202.0    
RIV   no.    6 value from time series:   115.10     for time:  201.0     to  202.0    
RIV   no.    7 value from time series:   104.00     for time:  201.0     to  202.0    
RIV   no.    8 value from time series:   104.00     for time:  201.0     to  202.0    
RIV   no.    9 value from time series:   113.50     for time:  201.0     to  202.0    
RIV   no.   10 value from time series:   113.50     for time:  201.0     to  202.0    
RIV   no.    1 value from time series:   101.00     for time:  201.0     to  202.0    
RIV   no.    2 value from time series:   101.00     for time:  201.0     to  202.0    
RIV   no.    3 value from time series:   111.50     for time:  201.0     to  202.0    
RIV   no.    4 value from time series:   111.50     for time:  201.0     to  202.0    
RIV   no.    5 value from time series:   115.10     for time:  201.0     to  202.0    
RIV   no.    6 value from time series:   115.10     for time:  201.0     to  202.0    
RIV   no.    7 value from time series:   104.00     for time:  201.0     to  202.0    
RIV   no.    8 value from time series:   104.00     for time:  201.0     to  202.0    
RIV   no.    9 value from time series:   113.50     for time:  201.0     to  202.0    
RIV   no.   10 value from time series:   113.50     for time:  201.0     to  202.0    

 NO OUTPUT CONTROL FOR STRESS PERIOD    7   TIME STEP   50
RIV   no.    1 value from time series:   101.00     for time:  202.0     to  203.0    
RIV   no.    2 value from time series:   101.00     for time:  202.0     to  203.0    
RIV   no.    3 value from time series:   111.50     for time:  202.0     to  203.0    
RIV   no.    4 value from time series:   111.50     for time:  202.0     to  203.0    
RIV   no.    5 value from time series:   115.10     for time:  202.0     to  203.0    
RIV   no.    6 value from time series:   115.10     for time:  202.0     to  203.0    
RIV   no.    7 value from time series:   104.00     for time:  202.0     to  203.0    
RIV   no.    8 value from time series:   104.00     for time:  202.0     to  203.0    
RIV   no.    9 value from time series:   113.50     for time:  202.0     to  203.0    
RIV   no.   10 value from time series:   113.50     for time:  202.0     to  203.0    
RIV   no.    1 value from time series:   101.00     for time:  202.0     to  203.0    
RIV   no.    2 value from time series:   101.00     for time:  202.0     to  203.0    
RIV   no.    3 value from time series:   111.50     for time:  202.0     to  203.0    
RIV   no.    4 value from time series:   111.50     for time:  202.0     to  203.0    
RIV   no.    5 value from time series:   115.10     for time:  202.0     to  203.0    
RIV   no.    6 value from time series:   115.10     for time:  202.0     to  203.0    
RIV   no.    7 value from time series:   104.00     for time:  202.0     to  203.0    
RIV   no.    8 value from time series:   104.00     for time:  202.0     to  203.0    
RIV   no.    9 value from time series:   113.50     for time:  202.0     to  203.0    
RIV   no.   10 value from time series:   113.50     for time:  202.0     to  203.0    

 NO OUTPUT CONTROL FOR STRESS PERIOD    7   TIME STEP   51
RIV   no.    1 value from time series:   101.00     for time:  203.0     to  204.0    
RIV   no.    2 value from time series:   101.00     for time:  203.0     to  204.0    
RIV   no.    3 value from time series:   111.50     for time:  203.0     to  204.0    
RIV   no.    4 value from time series:   111.50     for time:  203.0     to  204.0    
RIV   no.    5 value from time series:   115.10     for time:  203.0     to  204.0    
RIV   no.    6 value from time series:   115.10     for time:  203.0     to  204.0    
RIV   no.    7 value from time series:   104.00     for time:  203.0     to  204.0    
RIV   no.    8 value from time series:   104.00     for time:  203.0     to  204.0    
RIV   no.    9 value from time series:   113.50     for time:  203.0     to  204.0    
RIV   no.   10 value from time series:   113.50     for time:  203.0     to  204.0    
RIV   no.    1 value from time series:   101.00     for time:  203.0     to  204.0    
RIV   no.    2 value from time series:   101.00     for time:  203.0     to  204.0    
RIV   no.    3 value from time series:   111.50     for time:  203.0     to  204.0    
RIV   no.    4 value from time series:   111.50     for time:  203.0     to  204.0    
RIV   no.    5 value from time series:   115.10     for time:  203.0     to  204.0    
RIV   no.    6 value from time series:   115.10     for time:  203.0     to  204.0    
RIV   no.    7 value from time series:   104.00     for time:  203.0     to  204.0    
RIV   no.    8 value from time series:   104.00     for time:  203.0     to  204.0    
RIV   no.    9 value from time series:   113.50     for time:  203.0     to  204.0    
RIV   no.   10 value from time series:   113.50     for time:  203.0     to  204.0    

 NO OUTPUT CONTROL FOR STRESS PERIOD    7   TIME STEP   52
RIV   no.    1 value from time series:   101.00     for time:  204.0     to  205.0    
RIV   no.    2 value from time series:   101.00     for time:  204.0     to  205.0    
RIV   no.    3 value from time series:   111.50     for time:  204.0     to  205.0    
RIV   no.    4 value from time series:   111.50     for time:  204.0     to  205.0    
RIV   no.    5 value from time series:   115.10     for time:  204.0     to  205.0    
RIV   no.    6 value from time series:   115.10     for time:  204.0     to  205.0    
RIV   no.    7 value from time series:   104.00     for time:  204.0     to  205.0    
RIV   no.    8 value from time series:   104.00     for time:  204.0     to  205.0    
RIV   no.    9 value from time series:   113.50     for time:  204.0     to  205.0    
RIV   no.   10 value from time series:   113.50     for time:  204.0     to  205.0    
RIV   no.    1 value from time series:   101.00     for time:  204.0     to  205.0    
RIV   no.    2 value from time series:   101.00     for time:  204.0     to  205.0    
RIV   no.    3 value from time series:   111.50     for time:  204.0     to  205.0    
RIV   no.    4 value from time series:   111.50     for time:  204.0     to  205.0    
RIV   no.    5 value from time series:   115.10     for time:  204.0     to  205.0    
RIV   no.    6 value from time series:   115.10     for time:  204.0     to  205.0    
RIV   no.    7 value from time series:   104.00     for time:  204.0     to  205.0    
RIV   no.    8 value from time series:   104.00     for time:  204.0     to  205.0    
RIV   no.    9 value from time series:   113.50     for time:  204.0     to  205.0    
RIV   no.   10 value from time series:   113.50     for time:  204.0     to  205.0    

 NO OUTPUT CONTROL FOR STRESS PERIOD    7   TIME STEP   53
RIV   no.    1 value from time series:   101.00     for time:  205.0     to  206.0    
RIV   no.    2 value from time series:   101.00     for time:  205.0     to  206.0    
RIV   no.    3 value from time series:   111.50     for time:  205.0     to  206.0    
RIV   no.    4 value from time series:   111.50     for time:  205.0     to  206.0    
RIV   no.    5 value from time series:   115.10     for time:  205.0     to  206.0    
RIV   no.    6 value from time series:   115.10     for time:  205.0     to  206.0    
RIV   no.    7 value from time series:   104.00     for time:  205.0     to  206.0    
RIV   no.    8 value from time series:   104.00     for time:  205.0     to  206.0    
RIV   no.    9 value from time series:   113.50     for time:  205.0     to  206.0    
RIV   no.   10 value from time series:   113.50     for time:  205.0     to  206.0    
RIV   no.    1 value from time series:   101.00     for time:  205.0     to  206.0    
RIV   no.    2 value from time series:   101.00     for time:  205.0     to  206.0    
RIV   no.    3 value from time series:   111.50     for time:  205.0     to  206.0    
RIV   no.    4 value from time series:   111.50     for time:  205.0     to  206.0    
RIV   no.    5 value from time series:   115.10     for time:  205.0     to  206.0    
RIV   no.    6 value from time series:   115.10     for time:  205.0     to  206.0    
RIV   no.    7 value from time series:   104.00     for time:  205.0     to  206.0    
RIV   no.    8 value from time series:   104.00     for time:  205.0     to  206.0    
RIV   no.    9 value from time series:   113.50     for time:  205.0     to  206.0    
RIV   no.   10 value from time series:   113.50     for time:  205.0     to  206.0    

 NO OUTPUT CONTROL FOR STRESS PERIOD    7   TIME STEP   54
RIV   no.    1 value from time series:   101.00     for time:  206.0     to  207.0    
RIV   no.    2 value from time series:   101.00     for time:  206.0     to  207.0    
RIV   no.    3 value from time series:   111.50     for time:  206.0     to  207.0    
RIV   no.    4 value from time series:   111.50     for time:  206.0     to  207.0    
RIV   no.    5 value from time series:   115.10     for time:  206.0     to  207.0    
RIV   no.    6 value from time series:   115.10     for time:  206.0     to  207.0    
RIV   no.    7 value from time series:   104.00     for time:  206.0     to  207.0    
RIV   no.    8 value from time series:   104.00     for time:  206.0     to  207.0    
RIV   no.    9 value from time series:   113.50     for time:  206.0     to  207.0    
RIV   no.   10 value from time series:   113.50     for time:  206.0     to  207.0    
RIV   no.    1 value from time series:   101.00     for time:  206.0     to  207.0    
RIV   no.    2 value from time series:   101.00     for time:  206.0     to  207.0    
RIV   no.    3 value from time series:   111.50     for time:  206.0     to  207.0    
RIV   no.    4 value from time series:   111.50     for time:  206.0     to  207.0    
RIV   no.    5 value from time series:   115.10     for time:  206.0     to  207.0    
RIV   no.    6 value from time series:   115.10     for time:  206.0     to  207.0    
RIV   no.    7 value from time series:   104.00     for time:  206.0     to  207.0    
RIV   no.    8 value from time series:   104.00     for time:  206.0     to  207.0    
RIV   no.    9 value from time series:   113.50     for time:  206.0     to  207.0    
RIV   no.   10 value from time series:   113.50     for time:  206.0     to  207.0    

 NO OUTPUT CONTROL FOR STRESS PERIOD    7   TIME STEP   55
RIV   no.    1 value from time series:   101.00     for time:  207.0     to  208.0    
RIV   no.    2 value from time series:   101.00     for time:  207.0     to  208.0    
RIV   no.    3 value from time series:   111.50     for time:  207.0     to  208.0    
RIV   no.    4 value from time series:   111.50     for time:  207.0     to  208.0    
RIV   no.    5 value from time series:   115.10     for time:  207.0     to  208.0    
RIV   no.    6 value from time series:   115.10     for time:  207.0     to  208.0    
RIV   no.    7 value from time series:   104.00     for time:  207.0     to  208.0    
RIV   no.    8 value from time series:   104.00     for time:  207.0     to  208.0    
RIV   no.    9 value from time series:   113.50     for time:  207.0     to  208.0    
RIV   no.   10 value from time series:   113.50     for time:  207.0     to  208.0    
RIV   no.    1 value from time series:   101.00     for time:  207.0     to  208.0    
RIV   no.    2 value from time series:   101.00     for time:  207.0     to  208.0    
RIV   no.    3 value from time series:   111.50     for time:  207.0     to  208.0    
RIV   no.    4 value from time series:   111.50     for time:  207.0     to  208.0    
RIV   no.    5 value from time series:   115.10     for time:  207.0     to  208.0    
RIV   no.    6 value from time series:   115.10     for time:  207.0     to  208.0    
RIV   no.    7 value from time series:   104.00     for time:  207.0     to  208.0    
RIV   no.    8 value from time series:   104.00     for time:  207.0     to  208.0    
RIV   no.    9 value from time series:   113.50     for time:  207.0     to  208.0    
RIV   no.   10 value from time series:   113.50     for time:  207.0     to  208.0    

 NO OUTPUT CONTROL FOR STRESS PERIOD    7   TIME STEP   56
RIV   no.    1 value from time series:   101.00     for time:  208.0     to  209.0    
RIV   no.    2 value from time series:   101.00     for time:  208.0     to  209.0    
RIV   no.    3 value from time series:   111.50     for time:  208.0     to  209.0    
RIV   no.    4 value from time series:   111.50     for time:  208.0     to  209.0    
RIV   no.    5 value from time series:   115.10     for time:  208.0     to  209.0    
RIV   no.    6 value from time series:   115.10     for time:  208.0     to  209.0    
RIV   no.    7 value from time series:   104.00     for time:  208.0     to  209.0    
RIV   no.    8 value from time series:   104.00     for time:  208.0     to  209.0    
RIV   no.    9 value from time series:   113.50     for time:  208.0     to  209.0    
RIV   no.   10 value from time series:   113.50     for time:  208.0     to  209.0    
RIV   no.    1 value from time series:   101.00     for time:  208.0     to  209.0    
RIV   no.    2 value from time series:   101.00     for time:  208.0     to  209.0    
RIV   no.    3 value from time series:   111.50     for time:  208.0     to  209.0    
RIV   no.    4 value from time series:   111.50     for time:  208.0     to  209.0    
RIV   no.    5 value from time series:   115.10     for time:  208.0     to  209.0    
RIV   no.    6 value from time series:   115.10     for time:  208.0     to  209.0    
RIV   no.    7 value from time series:   104.00     for time:  208.0     to  209.0    
RIV   no.    8 value from time series:   104.00     for time:  208.0     to  209.0    
RIV   no.    9 value from time series:   113.50     for time:  208.0     to  209.0    
RIV   no.   10 value from time series:   113.50     for time:  208.0     to  209.0    

 NO OUTPUT CONTROL FOR STRESS PERIOD    7   TIME STEP   57
RIV   no.    1 value from time series:   101.00     for time:  209.0     to  210.0    
RIV   no.    2 value from time series:   101.00     for time:  209.0     to  210.0    
RIV   no.    3 value from time series:   111.50     for time:  209.0     to  210.0    
RIV   no.    4 value from time series:   111.50     for time:  209.0     to  210.0    
RIV   no.    5 value from time series:   115.10     for time:  209.0     to  210.0    
RIV   no.    6 value from time series:   115.10     for time:  209.0     to  210.0    
RIV   no.    7 value from time series:   104.00     for time:  209.0     to  210.0    
RIV   no.    8 value from time series:   104.00     for time:  209.0     to  210.0    
RIV   no.    9 value from time series:   113.50     for time:  209.0     to  210.0    
RIV   no.   10 value from time series:   113.50     for time:  209.0     to  210.0    
RIV   no.    1 value from time series:   101.00     for time:  209.0     to  210.0    
RIV   no.    2 value from time series:   101.00     for time:  209.0     to  210.0    
RIV   no.    3 value from time series:   111.50     for time:  209.0     to  210.0    
RIV   no.    4 value from time series:   111.50     for time:  209.0     to  210.0    
RIV   no.    5 value from time series:   115.10     for time:  209.0     to  210.0    
RIV   no.    6 value from time series:   115.10     for time:  209.0     to  210.0    
RIV   no.    7 value from time series:   104.00     for time:  209.0     to  210.0    
RIV   no.    8 value from time series:   104.00     for time:  209.0     to  210.0    
RIV   no.    9 value from time series:   113.50     for time:  209.0     to  210.0    
RIV   no.   10 value from time series:   113.50     for time:  209.0     to  210.0    

 NO OUTPUT CONTROL FOR STRESS PERIOD    7   TIME STEP   58
RIV   no.    1 value from time series:   101.00     for time:  210.0     to  211.0    
RIV   no.    2 value from time series:   101.00     for time:  210.0     to  211.0    
RIV   no.    3 value from time series:   111.50     for time:  210.0     to  211.0    
RIV   no.    4 value from time series:   111.50     for time:  210.0     to  211.0    
RIV   no.    5 value from time series:   115.10     for time:  210.0     to  211.0    
RIV   no.    6 value from time series:   115.10     for time:  210.0     to  211.0    
RIV   no.    7 value from time series:   104.00     for time:  210.0     to  211.0    
RIV   no.    8 value from time series:   104.00     for time:  210.0     to  211.0    
RIV   no.    9 value from time series:   113.50     for time:  210.0     to  211.0    
RIV   no.   10 value from time series:   113.50     for time:  210.0     to  211.0    
RIV   no.    1 value from time series:   101.00     for time:  210.0     to  211.0    
RIV   no.    2 value from time series:   101.00     for time:  210.0     to  211.0    
RIV   no.    3 value from time series:   111.50     for time:  210.0     to  211.0    
RIV   no.    4 value from time series:   111.50     for time:  210.0     to  211.0    
RIV   no.    5 value from time series:   115.10     for time:  210.0     to  211.0    
RIV   no.    6 value from time series:   115.10     for time:  210.0     to  211.0    
RIV   no.    7 value from time series:   104.00     for time:  210.0     to  211.0    
RIV   no.    8 value from time series:   104.00     for time:  210.0     to  211.0    
RIV   no.    9 value from time series:   113.50     for time:  210.0     to  211.0    
RIV   no.   10 value from time series:   113.50     for time:  210.0     to  211.0    

 NO OUTPUT CONTROL FOR STRESS PERIOD    7   TIME STEP   59
RIV   no.    1 value from time series:   101.00     for time:  211.0     to  212.0    
RIV   no.    2 value from time series:   101.00     for time:  211.0     to  212.0    
RIV   no.    3 value from time series:   111.50     for time:  211.0     to  212.0    
RIV   no.    4 value from time series:   111.50     for time:  211.0     to  212.0    
RIV   no.    5 value from time series:   115.10     for time:  211.0     to  212.0    
RIV   no.    6 value from time series:   115.10     for time:  211.0     to  212.0    
RIV   no.    7 value from time series:   104.00     for time:  211.0     to  212.0    
RIV   no.    8 value from time series:   104.00     for time:  211.0     to  212.0    
RIV   no.    9 value from time series:   113.50     for time:  211.0     to  212.0    
RIV   no.   10 value from time series:   113.50     for time:  211.0     to  212.0    
RIV   no.    1 value from time series:   101.00     for time:  211.0     to  212.0    
RIV   no.    2 value from time series:   101.00     for time:  211.0     to  212.0    
RIV   no.    3 value from time series:   111.50     for time:  211.0     to  212.0    
RIV   no.    4 value from time series:   111.50     for time:  211.0     to  212.0    
RIV   no.    5 value from time series:   115.10     for time:  211.0     to  212.0    
RIV   no.    6 value from time series:   115.10     for time:  211.0     to  212.0    
RIV   no.    7 value from time series:   104.00     for time:  211.0     to  212.0    
RIV   no.    8 value from time series:   104.00     for time:  211.0     to  212.0    
RIV   no.    9 value from time series:   113.50     for time:  211.0     to  212.0    
RIV   no.   10 value from time series:   113.50     for time:  211.0     to  212.0    

 NO OUTPUT CONTROL FOR STRESS PERIOD    7   TIME STEP   60
RIV   no.    1 value from time series:   101.00     for time:  212.0     to  213.0    
RIV   no.    2 value from time series:   101.00     for time:  212.0     to  213.0    
RIV   no.    3 value from time series:   111.50     for time:  212.0     to  213.0    
RIV   no.    4 value from time series:   111.50     for time:  212.0     to  213.0    
RIV   no.    5 value from time series:   115.10     for time:  212.0     to  213.0    
RIV   no.    6 value from time series:   115.10     for time:  212.0     to  213.0    
RIV   no.    7 value from time series:   104.00     for time:  212.0     to  213.0    
RIV   no.    8 value from time series:   104.00     for time:  212.0     to  213.0    
RIV   no.    9 value from time series:   113.50     for time:  212.0     to  213.0    
RIV   no.   10 value from time series:   113.50     for time:  212.0     to  213.0    
RIV   no.    1 value from time series:   101.00     for time:  212.0     to  213.0    
RIV   no.    2 value from time series:   101.00     for time:  212.0     to  213.0    
RIV   no.    3 value from time series:   111.50     for time:  212.0     to  213.0    
RIV   no.    4 value from time series:   111.50     for time:  212.0     to  213.0    
RIV   no.    5 value from time series:   115.10     for time:  212.0     to  213.0    
RIV   no.    6 value from time series:   115.10     for time:  212.0     to  213.0    
RIV   no.    7 value from time series:   104.00     for time:  212.0     to  213.0    
RIV   no.    8 value from time series:   104.00     for time:  212.0     to  213.0    
RIV   no.    9 value from time series:   113.50     for time:  212.0     to  213.0    
RIV   no.   10 value from time series:   113.50     for time:  212.0     to  213.0    

 OUTPUT CONTROL FOR STRESS PERIOD    7   TIME STEP   61
    PRINT BUDGET
    PRINT HEAD
    PRINT HEAD FOR ALL LAYERS
    SAVE BUDGET
    SAVE HEAD
    SAVE HEAD FOR ALL LAYERS
 UBDSV1 SAVING          STORAGE ON UNIT   1016 AT TIME STEP     61, STRESS PERIOD      7
 UBDSV1 SAVING FLOW RIGHT FACE  ON UNIT   1016 AT TIME STEP     61, STRESS PERIOD      7
 UBDSV1 SAVING FLOW FRONT FACE  ON UNIT   1016 AT TIME STEP     61, STRESS PERIOD      7
 UBDSV1 SAVING FLOW LOWER FACE  ON UNIT   1016 AT TIME STEP     61, STRESS PERIOD      7
 UBDSV4 SAVING WELLS NEAR RIVER ON UNIT   1016 AT TIME STEP     61, STRESS PERIOD      7
 UBDSV4 SAVING RIVER            ON UNIT   1016 AT TIME STEP     61, STRESS PERIOD      7

 RIVER              PERIOD  7   STEP 61
 BOUNDARY      1   LAYER   1   ROW     1   COL    15   RATE    -5299.79    
 BOUNDARY      2   LAYER   1   ROW     2   COL    15   RATE    -6430.14      RIV2
 BOUNDARY      3   LAYER   1   ROW     3   COL    15   RATE    -2687.57      RIV3
 BOUNDARY      4   LAYER   1   ROW     4   COL    15   RATE    -4155.73    
 BOUNDARY      5   LAYER   1   ROW     5   COL    15   RATE    -2788.61    
 BOUNDARY      6   LAYER   1   ROW     6   COL    15   RATE    -2134.28    
 BOUNDARY      7   LAYER   1   ROW     7   COL    15   RATE    -6633.29      RIVX
 BOUNDARY      8   LAYER   1   ROW     8   COL    15   RATE    -6486.58      RIVX
 BOUNDARY      9   LAYER   1   ROW     9   COL    15   RATE    -2689.75      RIVX
 BOUNDARY     10   LAYER   1   ROW    10   COL    15   RATE    -3600.88    

 GHB LAKES          PERIOD  7   STEP 61
 BOUNDARY      1   LAYER   1   ROW     3   COL     1   RATE    -15634.0    
 BOUNDARY      2   LAYER   1   ROW     7   COL     1   RATE    -2753.59      GHB2_UPPER
 BOUNDARY      3   LAYER   1   ROW     7   COL     1   RATE    -13562.2      GHB2_LOWER
 UBDSV4 SAVING RECHARGE         ON UNIT   1016 AT TIME STEP     61, STRESS PERIOD      7

 RECHARGE           PERIOD  7   STEP 61
 BOUNDARY      1   LAYER   1   ROW     1   COL     1   RATE     830.208    
 BOUNDARY      2   LAYER   1   ROW     1   COL     2   RATE     830.208    
 BOUNDARY      3   LAYER   1   ROW     1   COL     3   RATE     830.208    
 BOUNDARY      4   LAYER   1   ROW     1   COL     4   RATE     830.208    
 BOUNDARY      5   LAYER   1   ROW     1   COL     5   RATE     830.208    
 BOUNDARY      6   LAYER   1   ROW     1   COL     6   RATE     830.208    
 BOUNDARY      7   LAYER   1   ROW     1   COL     7   RATE     830.208    
 BOUNDARY      8   LAYER   1   ROW     1   COL     8   RATE     830.208    
 BOUNDARY      9   LAYER   1   ROW     1   COL     9   RATE     830.208    
 BOUNDARY     10   LAYER   1   ROW     1   COL    10   RATE     830.208    
 BOUNDARY     11   LAYER   1   ROW     1   COL    11   RATE     830.208    
 BOUNDARY     12   LAYER   1   ROW     1   COL    12   RATE     830.208    
 BOUNDARY     13   LAYER   1   ROW     1   COL    13   RATE     830.208    
 BOUNDARY     14   LAYER   1   ROW     1   COL    14   RATE     830.208    
 BOUNDARY     15   LAYER   1   ROW     1   COL    15   RATE     830.208    
 BOUNDARY     16   LAYER   1   ROW     2   COL     1   RATE     830.208    
 BOUNDARY     17   LAYER   1   ROW     2   COL     2   RATE     830.208    
 BOUNDARY     18   LAYER   1   ROW     2   COL     3   RATE     830.208    
 BOUNDARY     19   LAYER   1   ROW     2   COL     4   RATE     830.208    
 BOUNDARY     20   LAYER   1   ROW     2   COL     5   RATE     830.208    
 BOUNDARY     21   LAYER   1   ROW     2   COL     6   RATE     830.208    
 BOUNDARY     22   LAYER   1   ROW     2   COL     7   RATE     830.208    
 BOUNDARY     23   LAYER   1   ROW     2   COL     8   RATE     830.208    
 BOUNDARY     24   LAYER   1   ROW     2   COL     9   RATE     830.208    
 BOUNDARY     25   LAYER   1   ROW     2   COL    10   RATE     830.208    
 BOUNDARY     26   LAYER   1   ROW     2   COL    11   RATE     830.208    
 BOUNDARY     27   LAYER   1   ROW     2   COL    12   RATE     830.208    
 BOUNDARY     28   LAYER   1   ROW     2   COL    13   RATE     830.208    
 BOUNDARY     29   LAYER   1   ROW     2   COL    14   RATE     830.208    
 BOUNDARY     30   LAYER   1   ROW     2   COL    15   RATE     830.208    
 BOUNDARY     31   LAYER   1   ROW     3   COL     1   RATE     830.208    
 BOUNDARY     32   LAYER   1   ROW     3   COL     2   RATE     830.208    
 BOUNDARY     33   LAYER   1   ROW     3   COL     3   RATE     830.208    
 BOUNDARY     34   LAYER   1   ROW     3   COL     4   RATE     830.208    
 BOUNDARY     35   LAYER   1   ROW     3   COL     5   RATE     830.208    
 BOUNDARY     36   LAYER   1   ROW     3   COL     6   RATE     830.208    
 BOUNDARY     37   LAYER   1   ROW     3   COL     7   RATE     830.208    
 BOUNDARY     38   LAYER   1   ROW     3   COL     8   RATE     830.208    
 BOUNDARY     39   LAYER   1   ROW     3   COL     9   RATE     830.208    
 BOUNDARY     40   LAYER   1   ROW     3   COL    10   RATE     830.208    
 BOUNDARY     41   LAYER   1   ROW     3   COL    11   RATE     830.208    
 BOUNDARY     42   LAYER   1   ROW     3   COL    12   RATE     830.208    
 BOUNDARY     43   LAYER   1   ROW     3   COL    13   RATE     830.208    
 BOUNDARY     44   LAYER   1   ROW     3   COL    14   RATE     830.208    
 BOUNDARY     45   LAYER   1   ROW     3   COL    15   RATE     830.208    
 BOUNDARY     46   LAYER   1   ROW     4   COL     1   RATE     830.208    
 BOUNDARY     47   LAYER   1   ROW     4   COL     2   RATE     830.208    
 BOUNDARY     48   LAYER   1   ROW     4   COL     3   RATE     830.208    
 BOUNDARY     49   LAYER   1   ROW     4   COL     4   RATE     830.208    
 BOUNDARY     50   LAYER   1   ROW     4   COL     5   RATE     830.208    
 BOUNDARY     51   LAYER   1   ROW     4   COL     6   RATE     830.208    
 BOUNDARY     52   LAYER   1   ROW     4   COL     7   RATE     830.208    
 BOUNDARY     53   LAYER   1   ROW     4   COL     8   RATE     830.208    
 BOUNDARY     54   LAYER   1   ROW     4   COL     9   RATE     830.208    
 BOUNDARY     55   LAYER   1   ROW     4   COL    10   RATE     830.208    
 BOUNDARY     56   LAYER   1   ROW     4   COL    11   RATE     830.208    
 BOUNDARY     57   LAYER   1   ROW     4   COL    12   RATE     830.208    
 BOUNDARY     58   LAYER   1   ROW     4   COL    13   RATE     830.208    
 BOUNDARY     59   LAYER   1   ROW     4   COL    14   RATE     830.208    
 BOUNDARY     60   LAYER   1   ROW     4   COL    15   RATE     830.208    
 BOUNDARY     61   LAYER   1   ROW     5   COL     1   RATE     830.208    
 BOUNDARY     62   LAYER   1   ROW     5   COL     2   RATE     830.208    
 BOUNDARY     63   LAYER   1   ROW     5   COL     3   RATE     830.208    
 BOUNDARY     64   LAYER   1   ROW     5   COL     4   RATE     830.208    
 BOUNDARY     65   LAYER   1   ROW     5   COL     5   RATE     830.208    
 BOUNDARY     66   LAYER   1   ROW     5   COL     6   RATE     830.208    
 BOUNDARY     67   LAYER   1   ROW     5   COL     7   RATE     830.208    
 BOUNDARY     68   LAYER   1   ROW     5   COL     8   RATE     830.208    
 BOUNDARY     69   LAYER   1   ROW     5   COL     9   RATE     830.208    
 BOUNDARY     70   LAYER   1   ROW     5   COL    10   RATE     830.208    
 BOUNDARY     71   LAYER   1   ROW     5   COL    11   RATE     830.208    
 BOUNDARY     72   LAYER   1   ROW     5   COL    12   RATE     830.208    
 BOUNDARY     73   LAYER   1   ROW     5   COL    13   RATE     830.208    
 BOUNDARY     74   LAYER   1   ROW     5   COL    14   RATE     830.208    
 BOUNDARY     75   LAYER   1   ROW     5   COL    15   RATE     830.208    
 BOUNDARY     76   LAYER   1   ROW     6   COL     1   RATE     830.208    
 BOUNDARY     77   LAYER   1   ROW     6   COL     2   RATE     830.208    
 BOUNDARY     78   LAYER   1   ROW     6   COL     3   RATE     830.208    
 BOUNDARY     79   LAYER   1   ROW     6   COL     4   RATE     830.208    
 BOUNDARY     80   LAYER   1   ROW     6   COL     5   RATE     830.208    
 BOUNDARY     81   LAYER   1   ROW     6   COL     6   RATE     830.208    
 BOUNDARY     82   LAYER   1   ROW     6   COL     7   RATE     830.208    
 BOUNDARY     83   LAYER   1   ROW     6   COL     8   RATE     830.208    
 BOUNDARY     84   LAYER   1   ROW     6   COL     9   RATE     830.208    
 BOUNDARY     85   LAYER   1   ROW     6   COL    10   RATE     830.208    
 BOUNDARY     86   LAYER   1   ROW     6   COL    11   RATE     830.208    
 BOUNDARY     87   LAYER   1   ROW     6   COL    12   RATE     830.208    
 BOUNDARY     88   LAYER   1   ROW     6   COL    13   RATE     830.208    
 BOUNDARY     89   LAYER   1   ROW     6   COL    14   RATE     830.208    
 BOUNDARY     90   LAYER   1   ROW     6   COL    15   RATE     830.208    
 BOUNDARY     91   LAYER   1   ROW     7   COL     1   RATE     830.208    
 BOUNDARY     92   LAYER   1   ROW     7   COL     2   RATE     830.208    
 BOUNDARY     93   LAYER   1   ROW     7   COL     3   RATE     830.208    
 BOUNDARY     94   LAYER   1   ROW     7   COL     4   RATE     830.208    
 BOUNDARY     95   LAYER   1   ROW     7   COL     5   RATE     830.208    
 BOUNDARY     96   LAYER   1   ROW     7   COL     6   RATE     830.208    
 BOUNDARY     97   LAYER   1   ROW     7   COL     7   RATE     830.208    
 BOUNDARY     98   LAYER   1   ROW     7   COL     8   RATE     830.208    
 BOUNDARY     99   LAYER   1   ROW     7   COL     9   RATE     830.208    
 BOUNDARY    100   LAYER   1   ROW     7   COL    10   RATE     830.208    
 BOUNDARY    101   LAYER   1   ROW     7   COL    11   RATE     830.208    
 BOUNDARY    102   LAYER   1   ROW     7   COL    12   RATE     830.208    
 BOUNDARY    103   LAYER   1   ROW     7   COL    13   RATE     830.208    
 BOUNDARY    104   LAYER   1   ROW     7   COL    14   RATE     830.208    
 BOUNDARY    105   LAYER   1   ROW     7   COL    15   RATE     830.208    
 BOUNDARY    106   LAYER   1   ROW     8   COL     1   RATE     830.208    
 BOUNDARY    107   LAYER   1   ROW     8   COL     2   RATE     830.208    
 BOUNDARY    108   LAYER   1   ROW     8   COL     3   RATE     830.208    
 BOUNDARY    109   LAYER   1   ROW     8   COL     4   RATE     830.208    
 BOUNDARY    110   LAYER   1   ROW     8   COL     5   RATE     830.208    
 BOUNDARY    111   LAYER   1   ROW     8   COL     6   RATE     830.208    
 BOUNDARY    112   LAYER   1   ROW     8   COL     7   RATE     830.208    
 BOUNDARY    113   LAYER   1   ROW     8   COL     8   RATE     830.208    
 BOUNDARY    114   LAYER   1   ROW     8   COL     9   RATE     830.208    
 BOUNDARY    115   LAYER   1   ROW     8   COL    10   RATE     830.208    
 BOUNDARY    116   LAYER   1   ROW     8   COL    11   RATE     830.208    
 BOUNDARY    117   LAYER   1   ROW     8   COL    12   RATE     830.208    
 BOUNDARY    118   LAYER   1   ROW     8   COL    13   RATE     830.208    
 BOUNDARY    119   LAYER   1   ROW     8   COL    14   RATE     830.208    
 BOUNDARY    120   LAYER   1   ROW     8   COL    15   RATE     830.208    
 BOUNDARY    121   LAYER   1   ROW     9   COL     1   RATE     830.208    
 BOUNDARY    122   LAYER   1   ROW     9   COL     2   RATE     830.208    
 BOUNDARY    123   LAYER   1   ROW     9   COL     3   RATE     830.208    
 BOUNDARY    124   LAYER   1   ROW     9   COL     4   RATE     830.208    
 BOUNDARY    125   LAYER   1   ROW     9   COL     5   RATE     830.208    
 BOUNDARY    126   LAYER   1   ROW     9   COL     6   RATE     830.208    
 BOUNDARY    127   LAYER   1   ROW     9   COL     7   RATE     830.208    
 BOUNDARY    128   LAYER   1   ROW     9   COL     8   RATE     830.208    
 BOUNDARY    129   LAYER   1   ROW     9   COL     9   RATE     830.208    
 BOUNDARY    130   LAYER   1   ROW     9   COL    10   RATE     830.208    
 BOUNDARY    131   LAYER   1   ROW     9   COL    11   RATE     830.208    
 BOUNDARY    132   LAYER   1   ROW     9   COL    12   RATE     830.208    
 BOUNDARY    133   LAYER   1   ROW     9   COL    13   RATE     830.208    
 BOUNDARY    134   LAYER   1   ROW     9   COL    14   RATE     830.208    
 BOUNDARY    135   LAYER   1   ROW     9   COL    15   RATE     830.208    
 BOUNDARY    136   LAYER   1   ROW    10   COL     1   RATE     830.208    
 BOUNDARY    137   LAYER   1   ROW    10   COL     2   RATE     830.208    
 BOUNDARY    138   LAYER   1   ROW    10   COL     3   RATE     830.208    
 BOUNDARY    139   LAYER   1   ROW    10   COL     4   RATE     830.208    
 BOUNDARY    140   LAYER   1   ROW    10   COL     5   RATE     830.208    
 BOUNDARY    141   LAYER   1   ROW    10   COL     6   RATE     830.208    
 BOUNDARY    142   LAYER   1   ROW    10   COL     7   RATE     830.208    
 BOUNDARY    143   LAYER   1   ROW    10   COL     8   RATE     830.208    
 BOUNDARY    144   LAYER   1   ROW    10   COL     9   RATE     830.208    
 BOUNDARY    145   LAYER   1   ROW    10   COL    10   RATE     830.208    
 BOUNDARY    146   LAYER   1   ROW    10   COL    11   RATE     830.208    
 BOUNDARY    147   LAYER   1   ROW    10   COL    12   RATE     830.208    
 BOUNDARY    148   LAYER   1   ROW    10   COL    13   RATE     830.208    
 BOUNDARY    149   LAYER   1   ROW    10   COL    14   RATE     830.208    
 BOUNDARY    150   LAYER   1   ROW    10   COL    15   RATE     830.208    
 UBDSV4 SAVING ET SEGS          ON UNIT   1016 AT TIME STEP     61, STRESS PERIOD      7

 ET SEGS            PERIOD  7   STEP 61
 BOUNDARY      1   LAYER   1   ROW     1   COL     1   RATE    -5.82442    
 BOUNDARY      2   LAYER   1   ROW     1   COL     2   RATE    -19.1579    
 BOUNDARY      3   LAYER   1   ROW     1   COL     3   RATE   -100.0000    
 BOUNDARY      4   LAYER   1   ROW     1   COL     4   RATE   -100.0000    
 BOUNDARY      5   LAYER   1   ROW     1   COL     5   RATE   -100.0000    
 BOUNDARY      6   LAYER   1   ROW     1   COL     6   RATE   -100.0000    
 BOUNDARY      7   LAYER   1   ROW     1   COL     7   RATE   -100.0000    
 BOUNDARY      8   LAYER   1   ROW     1   COL     8   RATE   -100.0000    
 BOUNDARY      9   LAYER   1   ROW     1   COL     9   RATE   -100.0000    
 BOUNDARY     10   LAYER   1   ROW     1   COL    10   RATE   -100.0000    
 BOUNDARY     11   LAYER   1   ROW     1   COL    11   RATE   -100.0000    
 BOUNDARY     12   LAYER   1   ROW     1   COL    12   RATE    -29.6825    
 BOUNDARY     13   LAYER   1   ROW     1   COL    13   RATE    -2.80447    
 BOUNDARY     14   LAYER   1   ROW     1   COL    14   RATE     0.00000    
 BOUNDARY     15   LAYER   1   ROW     1   COL    15   RATE     0.00000    
 BOUNDARY     16   LAYER   1   ROW     2   COL     1   RATE     0.00000    
 BOUNDARY     17   LAYER   1   ROW     2   COL     2   RATE    -8.10762    
 BOUNDARY     18   LAYER   1   ROW     2   COL     3   RATE    -86.1556    
 BOUNDARY     19   LAYER   1   ROW     2   COL     4   RATE   -100.0000    
 BOUNDARY     20   LAYER   1   ROW     2   COL     5   RATE   -100.0000    
 BOUNDARY     21   LAYER   1   ROW     2   COL     6   RATE   -100.0000    
 BOUNDARY     22   LAYER   1   ROW     2   COL     7   RATE   -100.0000    
 BOUNDARY     23   LAYER   1   ROW     2   COL     8   RATE   -100.0000    
 BOUNDARY     24   LAYER   1   ROW     2   COL     9   RATE   -100.0000    
 BOUNDARY     25   LAYER   1   ROW     2   COL    10   RATE   -100.0000    
 BOUNDARY     26   LAYER   1   ROW     2   COL    11   RATE   -100.0000    
 BOUNDARY     27   LAYER   1   ROW     2   COL    12   RATE    -37.3560    
 BOUNDARY     28   LAYER   1   ROW     2   COL    13   RATE    -3.78645    
 BOUNDARY     29   LAYER   1   ROW     2   COL    14   RATE     0.00000    
 BOUNDARY     30   LAYER   1   ROW     2   COL    15   RATE     0.00000    
 BOUNDARY     31   LAYER   1   ROW     3   COL     1   RATE     0.00000    
 BOUNDARY     32   LAYER   1   ROW     3   COL     2   RATE   -0.982391    
 BOUNDARY     33   LAYER   1   ROW     3   COL     3   RATE    -54.4321    
 BOUNDARY     34   LAYER   1   ROW     3   COL     4   RATE   -100.0000    
 BOUNDARY     35   LAYER   1   ROW     3   COL     5   RATE   -100.0000    
 BOUNDARY     36   LAYER   1   ROW     3   COL     6   RATE   -100.0000    
 BOUNDARY     37   LAYER   1   ROW     3   COL     7   RATE   -100.0000    
 BOUNDARY     38   LAYER   1   ROW     3   COL     8   RATE   -100.0000    
 BOUNDARY     39   LAYER   1   ROW     3   COL     9   RATE   -100.0000    
 BOUNDARY     40   LAYER   1   ROW     3   COL    10   RATE   -100.0000    
 BOUNDARY     41   LAYER   1   ROW     3   COL    11   RATE   -100.0000    
 BOUNDARY     42   LAYER   1   ROW     3   COL    12   RATE    -52.3542    
 BOUNDARY     43   LAYER   1   ROW     3   COL    13   RATE    -5.56729    
 BOUNDARY     44   LAYER   1   ROW     3   COL    14   RATE     0.00000    
 BOUNDARY     45   LAYER   1   ROW     3   COL    15   RATE     0.00000    
 BOUNDARY     46   LAYER   1   ROW     4   COL     1   RATE     0.00000    
 BOUNDARY     47   LAYER   1   ROW     4   COL     2   RATE    -6.57363    
 BOUNDARY     48   LAYER   1   ROW     4   COL     3   RATE    -75.0527    
 BOUNDARY     49   LAYER   1   ROW     4   COL     4   RATE   -100.0000    
 BOUNDARY     50   LAYER   1   ROW     4   COL     5   RATE   -100.0000    
 BOUNDARY     51   LAYER   1   ROW     4   COL     6   RATE   -100.0000    
 BOUNDARY     52   LAYER   1   ROW     4   COL     7   RATE   -100.0000    
 BOUNDARY     53   LAYER   1   ROW     4   COL     8   RATE   -100.0000    
 BOUNDARY     54   LAYER   1   ROW     4   COL     9   RATE   -100.0000    
 BOUNDARY     55   LAYER   1   ROW     4   COL    10   RATE   -100.0000    
 BOUNDARY     56   LAYER   1   ROW     4   COL    11   RATE   -100.0000    
 BOUNDARY     57   LAYER   1   ROW     4   COL    12   RATE    -66.4230    
 BOUNDARY     58   LAYER   1   ROW     4   COL    13   RATE    -6.99817    
 BOUNDARY     59   LAYER   1   ROW     4   COL    14   RATE     0.00000    
 BOUNDARY     60   LAYER   1   ROW     4   COL    15   RATE     0.00000    
 BOUNDARY     61   LAYER   1   ROW     5   COL     1   RATE   -9.241956E-02
 BOUNDARY     62   LAYER   1   ROW     5   COL     2   RATE    -9.62119    
 BOUNDARY     63   LAYER   1   ROW     5   COL     3   RATE    -95.7423    
 BOUNDARY     64   LAYER   1   ROW     5   COL     4   RATE   -100.0000    
 BOUNDARY     65   LAYER   1   ROW     5   COL     5   RATE   -100.0000    
 BOUNDARY     66   LAYER   1   ROW     5   COL     6   RATE   -100.0000    
 BOUNDARY     67   LAYER   1   ROW     5   COL     7   RATE   -100.0000    
 BOUNDARY     68   LAYER   1   ROW     5   COL     8   RATE   -100.0000    
 BOUNDARY     69   LAYER   1   ROW     5   COL     9   RATE   -100.0000    
 BOUNDARY     70   LAYER   1   ROW     5   COL    10   RATE   -100.0000    
 BOUNDARY     71   LAYER   1   ROW     5   COL    11   RATE   -100.0000    
 BOUNDARY     72   LAYER   1   ROW     5   COL    12   RATE    -75.9863    
 BOUNDARY     73   LAYER   1   ROW     5   COL    13   RATE    -7.85997    
 BOUNDARY     74   LAYER   1   ROW     5   COL    14   RATE     0.00000    
 BOUNDARY     75   LAYER   1   ROW     5   COL    15   RATE     0.00000    
 BOUNDARY     76   LAYER   1   ROW     6   COL     1   RATE     0.00000    
 BOUNDARY     77   LAYER   1   ROW     6   COL     2   RATE    -8.06933    
 BOUNDARY     78   LAYER   1   ROW     6   COL     3   RATE    -98.9583    
 BOUNDARY     79   LAYER   1   ROW     6   COL     4   RATE   -100.0000    
 BOUNDARY     80   LAYER   1   ROW     6   COL     5   RATE   -100.0000    
 BOUNDARY     81   LAYER   1   ROW     6   COL     6   RATE   -100.0000    
 BOUNDARY     82   LAYER   1   ROW     6   COL     7   RATE   -100.0000    
 BOUNDARY     83   LAYER   1   ROW     6   COL     8   RATE   -100.0000    
 BOUNDARY     84   LAYER   1   ROW     6   COL     9   RATE   -100.0000    
 BOUNDARY     85   LAYER   1   ROW     6   COL    10   RATE   -100.0000    
 BOUNDARY     86   LAYER   1   ROW     6   COL    11   RATE   -100.0000    
 BOUNDARY     87   LAYER   1   ROW     6   COL    12   RATE    -79.1733    
 BOUNDARY     88   LAYER   1   ROW     6   COL    13   RATE    -7.80656    
 BOUNDARY     89   LAYER   1   ROW     6   COL    14   RATE     0.00000    
 BOUNDARY     90   LAYER   1   ROW     6   COL    15   RATE     0.00000    
 BOUNDARY     91   LAYER   1   ROW     7   COL     1   RATE     0.00000    
 BOUNDARY     92   LAYER   1   ROW     7   COL     2   RATE    -4.30031    
 BOUNDARY     93   LAYER   1   ROW     7   COL     3   RATE   -100.0000    
 BOUNDARY     94   LAYER   1   ROW     7   COL     4   RATE   -100.0000    
 BOUNDARY     95   LAYER   1   ROW     7   COL     5   RATE   -100.0000    
 BOUNDARY     96   LAYER   1   ROW     7   COL     6   RATE   -100.0000    
 BOUNDARY     97   LAYER   1   ROW     7   COL     7   RATE   -100.0000    
 BOUNDARY     98   LAYER   1   ROW     7   COL     8   RATE   -100.0000    
 BOUNDARY     99   LAYER   1   ROW     7   COL     9   RATE   -100.0000    
 BOUNDARY    100   LAYER   1   ROW     7   COL    10   RATE   -100.0000    
 BOUNDARY    101   LAYER   1   ROW     7   COL    11   RATE   -100.0000    
 BOUNDARY    102   LAYER   1   ROW     7   COL    12   RATE    -78.5226    
 BOUNDARY    103   LAYER   1   ROW     7   COL    13   RATE    -7.10901    
 BOUNDARY    104   LAYER   1   ROW     7   COL    14   RATE     0.00000    
 BOUNDARY    105   LAYER   1   ROW     7   COL    15   RATE     0.00000    
 BOUNDARY    106   LAYER   1   ROW     8   COL     1   RATE    -1.58131    
 BOUNDARY    107   LAYER   1   ROW     8   COL     2   RATE    -23.2189    
 BOUNDARY    108   LAYER   1   ROW     8   COL     3   RATE   -100.0000    
 BOUNDARY    109   LAYER   1   ROW     8   COL     4   RATE   -100.0000    
 BOUNDARY    110   LAYER   1   ROW     8   COL     5   RATE   -100.0000    
 BOUNDARY    111   LAYER   1   ROW     8   COL     6   RATE   -100.0000    
 BOUNDARY    112   LAYER   1   ROW     8   COL     7   RATE   -100.0000    
 BOUNDARY    113   LAYER   1   ROW     8   COL     8   RATE   -100.0000    
 BOUNDARY    114   LAYER   1   ROW     8   COL     9   RATE   -100.0000    
 BOUNDARY    115   LAYER   1   ROW     8   COL    10   RATE   -100.0000    
 BOUNDARY    116   LAYER   1   ROW     8   COL    11   RATE   -100.0000    
 BOUNDARY    117   LAYER   1   ROW     8   COL    12   RATE    -80.8925    
 BOUNDARY    118   LAYER   1   ROW     8   COL    13   RATE    -7.16683    
 BOUNDARY    119   LAYER   1   ROW     8   COL    14   RATE     0.00000    
 BOUNDARY    120   LAYER   1   ROW     8   COL    15   RATE     0.00000    
 BOUNDARY    121   LAYER   1   ROW     9   COL     1   RATE    -35.1706    
 BOUNDARY    122   LAYER   1   ROW     9   COL     2   RATE   -100.0000    
 BOUNDARY    123   LAYER   1   ROW     9   COL     3   RATE   -100.0000    
 BOUNDARY    124   LAYER   1   ROW     9   COL     4   RATE   -100.0000    
 BOUNDARY    125   LAYER   1   ROW     9   COL     5   RATE   -100.0000    
 BOUNDARY    126   LAYER   1   ROW     9   COL     6   RATE   -100.0000    
 BOUNDARY    127   LAYER   1   ROW     9   COL     7   RATE   -100.0000    
 BOUNDARY    128   LAYER   1   ROW     9   COL     8   RATE   -100.0000    
 BOUNDARY    129   LAYER   1   ROW     9   COL     9   RATE   -100.0000    
 BOUNDARY    130   LAYER   1   ROW     9   COL    10   RATE   -100.0000    
 BOUNDARY    131   LAYER   1   ROW     9   COL    11   RATE   -100.0000    
 BOUNDARY    132   LAYER   1   ROW     9   COL    12   RATE    -86.9551    
 BOUNDARY    133   LAYER   1   ROW     9   COL    13   RATE    -8.04663    
 BOUNDARY    134   LAYER   1   ROW     9   COL    14   RATE     0.00000    
 BOUNDARY    135   LAYER   1   ROW     9   COL    15   RATE     0.00000    
 BOUNDARY    136   LAYER   1   ROW    10   COL     1   RATE   -100.0000    
 BOUNDARY    137   LAYER   1   ROW    10   COL     2   RATE   -100.0000    
 BOUNDARY    138   LAYER   1   ROW    10   COL     3   RATE   -100.0000    
 BOUNDARY    139   LAYER   1   ROW    10   COL     4   RATE   -100.0000    
 BOUNDARY    140   LAYER   1   ROW    10   COL     5   RATE   -100.0000    
 BOUNDARY    141   LAYER   1   ROW    10   COL     6   RATE   -100.0000    
 BOUNDARY    142   LAYER   1   ROW    10   COL     7   RATE   -100.0000    
 BOUNDARY    143   LAYER   1   ROW    10   COL     8   RATE   -100.0000    
 BOUNDARY    144   LAYER   1   ROW    10   COL     9   RATE   -100.0000    
 BOUNDARY    145   LAYER   1   ROW    10   COL    10   RATE   -100.0000    
 BOUNDARY    146   LAYER   1   ROW    10   COL    11   RATE   -100.0000    
 BOUNDARY    147   LAYER   1   ROW    10   COL    12   RATE    -91.2866    
 BOUNDARY    148   LAYER   1   ROW    10   COL    13   RATE    -8.60807    
 BOUNDARY    149   LAYER   1   ROW    10   COL    14   RATE     0.00000    
 BOUNDARY    150   LAYER   1   ROW    10   COL    15   RATE     0.00000    
1
  HEAD             IN LAYER   1 AT END OF TIME STEP  61 IN STRESS PERIOD    7
  ---------------------------------------------------------------------------

           1       2       3       4       5       6       7       8       9      10      11      12      13      14      15
 ...........................................................................................................................
   1   132.91  136.37  140.42  143.98  146.67  148.42  149.21  149.06  147.94  145.80  142.54  137.95  131.40  121.79  106.29
   2   127.43  134.05  139.60  143.71  146.60  148.41  149.24  149.10  148.00  145.89  142.69  138.21  131.89  122.69  107.42
   3   110.40  130.49  138.70  143.47  146.56  148.45  149.31  149.19  148.11  146.05  142.93  138.64  132.78  124.83  114.18
   4   126.14  133.29  139.29  143.66  146.68  148.57  149.43  149.32  148.26  146.23  143.19  139.04  133.50  126.06  115.64
   5   130.05  134.81  139.88  143.98  146.91  148.76  149.60  149.47  148.41  146.40  143.40  139.31  133.93  126.89  117.87
   6   126.84  134.03  139.97  144.27  147.20  149.01  149.85  149.66  148.57  146.55  143.53  139.40  133.90  126.56  117.22
   7   111.96  132.15  140.15  144.72  147.61  149.38  150.50  149.96  148.74  146.67  143.62  139.39  133.55  125.02  110.59
   8   130.79  136.98  142.01  145.65  148.18  149.90  151.12  150.72  148.96  146.79  143.71  139.45  133.58  124.96  110.44
   9   138.15  140.74  143.86  146.61  148.80  150.82  151.68  151.14  149.15  146.90  143.82  139.63  134.02  126.39  116.17
  10   140.98  142.59  144.90  147.18  149.18  151.21  151.97  151.35  149.26  146.97  143.89  139.75  134.30  127.01  117.07
1
  HEAD             IN LAYER   2 AT END OF TIME STEP  61 IN STRESS PERIOD    7
  ---------------------------------------------------------------------------

           1       2       3       4       5       6       7       8       9      10      11      12      13      14      15
 ...........................................................................................................................
   1   133.76  136.06  139.26  142.37  144.87  146.54  147.31  147.13  145.96  143.78  140.53  136.16  130.69  124.48  119.00
   2   131.91  135.03  138.81  142.20  144.82  146.55  147.34  147.17  146.03  143.87  140.67  136.39  131.08  125.13  119.89
   3   129.20  133.87  138.38  142.07  144.82  146.60  147.42  147.27  146.14  144.03  140.90  136.78  131.75  126.28  121.79
   4   131.23  134.60  138.64  142.21  144.95  146.73  147.55  147.40  146.29  144.21  141.16  137.16  132.35  127.20  123.03
   5   132.48  135.32  139.06  142.51  145.19  146.94  147.74  147.58  146.47  144.40  141.38  137.44  132.73  127.74  123.79
   6   132.11  135.44  139.39  142.87  145.52  147.24  148.01  147.81  146.66  144.57  141.53  137.57  132.81  127.70  123.58
   7   131.08  135.65  139.95  143.41  145.97  147.63  148.39  148.10  146.86  144.72  141.65  137.63  132.72  127.25  122.44
   8   135.07  137.91  141.27  144.24  146.55  148.10  148.81  148.45  147.09  144.87  141.77  137.72  132.78  127.28  122.42
   9   138.39  140.15  142.63  145.07  147.11  148.58  149.18  148.74  147.27  145.00  141.88  137.87  133.05  127.83  123.55
  10   140.11  141.42  143.44  145.57  147.45  148.85  149.38  148.89  147.38  145.08  141.95  137.97  133.24  128.19  124.10

 HEAD WILL BE SAVED ON UNIT 1017 AT END OF TIME STEP   61, STRESS PERIOD    7
1
  VOLUME BUDGET FOR ENTIRE MODEL AT END OF TIME STEP   61, STRESS PERIOD   7
  ------------------------------------------------------------------------------

     CUMULATIVE VOLUME      L**3       RATES FOR THIS TIME STEP      L**3/T
     ------------------                 ------------------------

           IN:                                      IN:
           ---                                      ---
             STORAGE =       53160.3109               STORAGE =           0.0000
    WELLS NEAR RIVER =           0.0000      WELLS NEAR RIVER =           0.0000
               RIVER =           0.0000                 RIVER =           0.0000
           GHB LAKES =           0.0000             GHB LAKES =           0.0000
            RECHARGE =    23803031.2500              RECHARGE =      124531.2500
             ET SEGS =           0.0000               ET SEGS =           0.0000

            TOTAL IN =    23856191.5609              TOTAL IN =      124531.2500

          OUT:                                     OUT:
          ----                                     ----
             STORAGE =     7011271.2705               STORAGE =       39597.4377
    WELLS NEAR RIVER =        5570.0000      WELLS NEAR RIVER =           0.0000
               RIVER =     8354653.3397                 RIVER =       42906.6156
           GHB LAKES =     6481164.4856             GHB LAKES =       31949.7702
            RECHARGE =           0.0000              RECHARGE =           0.0000
             ET SEGS =     2003532.4680               ET SEGS =       10077.4266

           TOTAL OUT =    23856191.5637             TOTAL OUT =      124531.2501

            IN - OUT =      -2.8001E-03              IN - OUT =      -1.1107E-04

 PERCENT DISCREPANCY =          -0.00     PERCENT DISCREPANCY =          -0.00






         TIME SUMMARY AT END OF TIME STEP   61 IN STRESS PERIOD    7
                    SECONDS     MINUTES      HOURS       DAYS        YEARS
                    -----------------------------------------------------------
   TIME STEP LENGTH  86400.      1440.0      24.000     1.00000     2.73785E-03
 STRESS PERIOD TIME 5.27040E+06  87840.      1464.0      61.000     0.16701    
         TOTAL TIME 1.84032E+07 3.06720E+05  5112.0      213.00     0.58316    
RIV   no.    1 value from time series:   101.00     for time:  213.0     to  214.0    
RIV   no.    2 value from time series:   101.00     for time:  213.0     to  214.0    
RIV   no.    3 value from time series:   111.50     for time:  213.0     to  214.0    
RIV   no.    4 value from time series:   111.50     for time:  213.0     to  214.0    
RIV   no.    5 value from time series:   115.10     for time:  213.0     to  214.0    
RIV   no.    6 value from time series:   115.10     for time:  213.0     to  214.0    
RIV   no.    7 value from time series:   104.00     for time:  213.0     to  214.0    
RIV   no.    8 value from time series:   104.00     for time:  213.0     to  214.0    
RIV   no.    9 value from time series:   113.50     for time:  213.0     to  214.0    
RIV   no.   10 value from time series:   113.50     for time:  213.0     to  214.0    
RIV   no.    1 value from time series:   101.00     for time:  213.0     to  214.0    
RIV   no.    2 value from time series:   101.00     for time:  213.0     to  214.0    
RIV   no.    3 value from time series:   111.50     for time:  213.0     to  214.0    
RIV   no.    4 value from time series:   111.50     for time:  213.0     to  214.0    
RIV   no.    5 value from time series:   115.10     for time:  213.0     to  214.0    
RIV   no.    6 value from time series:   115.10     for time:  213.0     to  214.0    
RIV   no.    7 value from time series:   104.00     for time:  213.0     to  214.0    
RIV   no.    8 value from time series:   104.00     for time:  213.0     to  214.0    
RIV   no.    9 value from time series:   113.50     for time:  213.0     to  214.0    
RIV   no.   10 value from time series:   113.50     for time:  213.0     to  214.0    

 NO OUTPUT CONTROL FOR STRESS PERIOD    7   TIME STEP   62
RIV   no.    1 value from time series:   101.00     for time:  214.0     to  215.0    
RIV   no.    2 value from time series:   101.00     for time:  214.0     to  215.0    
RIV   no.    3 value from time series:   111.50     for time:  214.0     to  215.0    
RIV   no.    4 value from time series:   111.50     for time:  214.0     to  215.0    
RIV   no.    5 value from time series:   115.10     for time:  214.0     to  215.0    
RIV   no.    6 value from time series:   115.10     for time:  214.0     to  215.0    
RIV   no.    7 value from time series:   104.00     for time:  214.0     to  215.0    
RIV   no.    8 value from time series:   104.00     for time:  214.0     to  215.0    
RIV   no.    9 value from time series:   113.50     for time:  214.0     to  215.0    
RIV   no.   10 value from time series:   113.50     for time:  214.0     to  215.0    
RIV   no.    1 value from time series:   101.00     for time:  214.0     to  215.0    
RIV   no.    2 value from time series:   101.00     for time:  214.0     to  215.0    
RIV   no.    3 value from time series:   111.50     for time:  214.0     to  215.0    
RIV   no.    4 value from time series:   111.50     for time:  214.0     to  215.0    
RIV   no.    5 value from time series:   115.10     for time:  214.0     to  215.0    
RIV   no.    6 value from time series:   115.10     for time:  214.0     to  215.0    
RIV   no.    7 value from time series:   104.00     for time:  214.0     to  215.0    
RIV   no.    8 value from time series:   104.00     for time:  214.0     to  215.0    
RIV   no.    9 value from time series:   113.50     for time:  214.0     to  215.0    
RIV   no.   10 value from time series:   113.50     for time:  214.0     to  215.0    

 NO OUTPUT CONTROL FOR STRESS PERIOD    7   TIME STEP   63
RIV   no.    1 value from time series:   101.00     for time:  215.0     to  216.0    
RIV   no.    2 value from time series:   101.00     for time:  215.0     to  216.0    
RIV   no.    3 value from time series:   111.50     for time:  215.0     to  216.0    
RIV   no.    4 value from time series:   111.50     for time:  215.0     to  216.0    
RIV   no.    5 value from time series:   115.10     for time:  215.0     to  216.0    
RIV   no.    6 value from time series:   115.10     for time:  215.0     to  216.0    
RIV   no.    7 value from time series:   104.00     for time:  215.0     to  216.0    
RIV   no.    8 value from time series:   104.00     for time:  215.0     to  216.0    
RIV   no.    9 value from time series:   113.50     for time:  215.0     to  216.0    
RIV   no.   10 value from time series:   113.50     for time:  215.0     to  216.0    
RIV   no.    1 value from time series:   101.00     for time:  215.0     to  216.0    
RIV   no.    2 value from time series:   101.00     for time:  215.0     to  216.0    
RIV   no.    3 value from time series:   111.50     for time:  215.0     to  216.0    
RIV   no.    4 value from time series:   111.50     for time:  215.0     to  216.0    
RIV   no.    5 value from time series:   115.10     for time:  215.0     to  216.0    
RIV   no.    6 value from time series:   115.10     for time:  215.0     to  216.0    
RIV   no.    7 value from time series:   104.00     for time:  215.0     to  216.0    
RIV   no.    8 value from time series:   104.00     for time:  215.0     to  216.0    
RIV   no.    9 value from time series:   113.50     for time:  215.0     to  216.0    
RIV   no.   10 value from time series:   113.50     for time:  215.0     to  216.0    

 NO OUTPUT CONTROL FOR STRESS PERIOD    7   TIME STEP   64
RIV   no.    1 value from time series:   101.00     for time:  216.0     to  217.0    
RIV   no.    2 value from time series:   101.00     for time:  216.0     to  217.0    
RIV   no.    3 value from time series:   111.50     for time:  216.0     to  217.0    
RIV   no.    4 value from time series:   111.50     for time:  216.0     to  217.0    
RIV   no.    5 value from time series:   115.10     for time:  216.0     to  217.0    
RIV   no.    6 value from time series:   115.10     for time:  216.0     to  217.0    
RIV   no.    7 value from time series:   104.00     for time:  216.0     to  217.0    
RIV   no.    8 value from time series:   104.00     for time:  216.0     to  217.0    
RIV   no.    9 value from time series:   113.50     for time:  216.0     to  217.0    
RIV   no.   10 value from time series:   113.50     for time:  216.0     to  217.0    
RIV   no.    1 value from time series:   101.00     for time:  216.0     to  217.0    
RIV   no.    2 value from time series:   101.00     for time:  216.0     to  217.0    
RIV   no.    3 value from time series:   111.50     for time:  216.0     to  217.0    
RIV   no.    4 value from time series:   111.50     for time:  216.0     to  217.0    
RIV   no.    5 value from time series:   115.10     for time:  216.0     to  217.0    
RIV   no.    6 value from time series:   115.10     for time:  216.0     to  217.0    
RIV   no.    7 value from time series:   104.00     for time:  216.0     to  217.0    
RIV   no.    8 value from time series:   104.00     for time:  216.0     to  217.0    
RIV   no.    9 value from time series:   113.50     for time:  216.0     to  217.0    
RIV   no.   10 value from time series:   113.50     for time:  216.0     to  217.0    

 NO OUTPUT CONTROL FOR STRESS PERIOD    7   TIME STEP   65
RIV   no.    1 value from time series:   101.00     for time:  217.0     to  218.0    
RIV   no.    2 value from time series:   101.00     for time:  217.0     to  218.0    
RIV   no.    3 value from time series:   111.50     for time:  217.0     to  218.0    
RIV   no.    4 value from time series:   111.50     for time:  217.0     to  218.0    
RIV   no.    5 value from time series:   115.10     for time:  217.0     to  218.0    
RIV   no.    6 value from time series:   115.10     for time:  217.0     to  218.0    
RIV   no.    7 value from time series:   104.00     for time:  217.0     to  218.0    
RIV   no.    8 value from time series:   104.00     for time:  217.0     to  218.0    
RIV   no.    9 value from time series:   113.50     for time:  217.0     to  218.0    
RIV   no.   10 value from time series:   113.50     for time:  217.0     to  218.0    
RIV   no.    1 value from time series:   101.00     for time:  217.0     to  218.0    
RIV   no.    2 value from time series:   101.00     for time:  217.0     to  218.0    
RIV   no.    3 value from time series:   111.50     for time:  217.0     to  218.0    
RIV   no.    4 value from time series:   111.50     for time:  217.0     to  218.0    
RIV   no.    5 value from time series:   115.10     for time:  217.0     to  218.0    
RIV   no.    6 value from time series:   115.10     for time:  217.0     to  218.0    
RIV   no.    7 value from time series:   104.00     for time:  217.0     to  218.0    
RIV   no.    8 value from time series:   104.00     for time:  217.0     to  218.0    
RIV   no.    9 value from time series:   113.50     for time:  217.0     to  218.0    
RIV   no.   10 value from time series:   113.50     for time:  217.0     to  218.0    

 NO OUTPUT CONTROL FOR STRESS PERIOD    7   TIME STEP   66
RIV   no.    1 value from time series:   101.00     for time:  218.0     to  219.0    
RIV   no.    2 value from time series:   101.00     for time:  218.0     to  219.0    
RIV   no.    3 value from time series:   111.50     for time:  218.0     to  219.0    
RIV   no.    4 value from time series:   111.50     for time:  218.0     to  219.0    
RIV   no.    5 value from time series:   115.10     for time:  218.0     to  219.0    
RIV   no.    6 value from time series:   115.10     for time:  218.0     to  219.0    
RIV   no.    7 value from time series:   104.00     for time:  218.0     to  219.0    
RIV   no.    8 value from time series:   104.00     for time:  218.0     to  219.0    
RIV   no.    9 value from time series:   113.50     for time:  218.0     to  219.0    
RIV   no.   10 value from time series:   113.50     for time:  218.0     to  219.0    
RIV   no.    1 value from time series:   101.00     for time:  218.0     to  219.0    
RIV   no.    2 value from time series:   101.00     for time:  218.0     to  219.0    
RIV   no.    3 value from time series:   111.50     for time:  218.0     to  219.0    
RIV   no.    4 value from time series:   111.50     for time:  218.0     to  219.0    
RIV   no.    5 value from time series:   115.10     for time:  218.0     to  219.0    
RIV   no.    6 value from time series:   115.10     for time:  218.0     to  219.0    
RIV   no.    7 value from time series:   104.00     for time:  218.0     to  219.0    
RIV   no.    8 value from time series:   104.00     for time:  218.0     to  219.0    
RIV   no.    9 value from time series:   113.50     for time:  218.0     to  219.0    
RIV   no.   10 value from time series:   113.50     for time:  218.0     to  219.0    

 NO OUTPUT CONTROL FOR STRESS PERIOD    7   TIME STEP   67
RIV   no.    1 value from time series:   101.00     for time:  219.0     to  220.0    
RIV   no.    2 value from time series:   101.00     for time:  219.0     to  220.0    
RIV   no.    3 value from time series:   111.50     for time:  219.0     to  220.0    
RIV   no.    4 value from time series:   111.50     for time:  219.0     to  220.0    
RIV   no.    5 value from time series:   115.10     for time:  219.0     to  220.0    
RIV   no.    6 value from time series:   115.10     for time:  219.0     to  220.0    
RIV   no.    7 value from time series:   104.00     for time:  219.0     to  220.0    
RIV   no.    8 value from time series:   104.00     for time:  219.0     to  220.0    
RIV   no.    9 value from time series:   113.50     for time:  219.0     to  220.0    
RIV   no.   10 value from time series:   113.50     for time:  219.0     to  220.0    
RIV   no.    1 value from time series:   101.00     for time:  219.0     to  220.0    
RIV   no.    2 value from time series:   101.00     for time:  219.0     to  220.0    
RIV   no.    3 value from time series:   111.50     for time:  219.0     to  220.0    
RIV   no.    4 value from time series:   111.50     for time:  219.0     to  220.0    
RIV   no.    5 value from time series:   115.10     for time:  219.0     to  220.0    
RIV   no.    6 value from time series:   115.10     for time:  219.0     to  220.0    
RIV   no.    7 value from time series:   104.00     for time:  219.0     to  220.0    
RIV   no.    8 value from time series:   104.00     for time:  219.0     to  220.0    
RIV   no.    9 value from time series:   113.50     for time:  219.0     to  220.0    
RIV   no.   10 value from time series:   113.50     for time:  219.0     to  220.0    

 NO OUTPUT CONTROL FOR STRESS PERIOD    7   TIME STEP   68
RIV   no.    1 value from time series:   101.00     for time:  220.0     to  221.0    
RIV   no.    2 value from time series:   101.00     for time:  220.0     to  221.0    
RIV   no.    3 value from time series:   111.50     for time:  220.0     to  221.0    
RIV   no.    4 value from time series:   111.50     for time:  220.0     to  221.0    
RIV   no.    5 value from time series:   115.10     for time:  220.0     to  221.0    
RIV   no.    6 value from time series:   115.10     for time:  220.0     to  221.0    
RIV   no.    7 value from time series:   104.00     for time:  220.0     to  221.0    
RIV   no.    8 value from time series:   104.00     for time:  220.0     to  221.0    
RIV   no.    9 value from time series:   113.50     for time:  220.0     to  221.0    
RIV   no.   10 value from time series:   113.50     for time:  220.0     to  221.0    
RIV   no.    1 value from time series:   101.00     for time:  220.0     to  221.0    
RIV   no.    2 value from time series:   101.00     for time:  220.0     to  221.0    
RIV   no.    3 value from time series:   111.50     for time:  220.0     to  221.0    
RIV   no.    4 value from time series:   111.50     for time:  220.0     to  221.0    
RIV   no.    5 value from time series:   115.10     for time:  220.0     to  221.0    
RIV   no.    6 value from time series:   115.10     for time:  220.0     to  221.0    
RIV   no.    7 value from time series:   104.00     for time:  220.0     to  221.0    
RIV   no.    8 value from time series:   104.00     for time:  220.0     to  221.0    
RIV   no.    9 value from time series:   113.50     for time:  220.0     to  221.0    
RIV   no.   10 value from time series:   113.50     for time:  220.0     to  221.0    

 NO OUTPUT CONTROL FOR STRESS PERIOD    7   TIME STEP   69
RIV   no.    1 value from time series:   101.00     for time:  221.0     to  222.0    
RIV   no.    2 value from time series:   101.00     for time:  221.0     to  222.0    
RIV   no.    3 value from time series:   111.50     for time:  221.0     to  222.0    
RIV   no.    4 value from time series:   111.50     for time:  221.0     to  222.0    
RIV   no.    5 value from time series:   115.10     for time:  221.0     to  222.0    
RIV   no.    6 value from time series:   115.10     for time:  221.0     to  222.0    
RIV   no.    7 value from time series:   104.00     for time:  221.0     to  222.0    
RIV   no.    8 value from time series:   104.00     for time:  221.0     to  222.0    
RIV   no.    9 value from time series:   113.50     for time:  221.0     to  222.0    
RIV   no.   10 value from time series:   113.50     for time:  221.0     to  222.0    
RIV   no.    1 value from time series:   101.00     for time:  221.0     to  222.0    
RIV   no.    2 value from time series:   101.00     for time:  221.0     to  222.0    
RIV   no.    3 value from time series:   111.50     for time:  221.0     to  222.0    
RIV   no.    4 value from time series:   111.50     for time:  221.0     to  222.0    
RIV   no.    5 value from time series:   115.10     for time:  221.0     to  222.0    
RIV   no.    6 value from time series:   115.10     for time:  221.0     to  222.0    
RIV   no.    7 value from time series:   104.00     for time:  221.0     to  222.0    
RIV   no.    8 value from time series:   104.00     for time:  221.0     to  222.0    
RIV   no.    9 value from time series:   113.50     for time:  221.0     to  222.0    
RIV   no.   10 value from time series:   113.50     for time:  221.0     to  222.0    

 NO OUTPUT CONTROL FOR STRESS PERIOD    7   TIME STEP   70
RIV   no.    1 value from time series:   101.00     for time:  222.0     to  223.0    
RIV   no.    2 value from time series:   101.00     for time:  222.0     to  223.0    
RIV   no.    3 value from time series:   111.50     for time:  222.0     to  223.0    
RIV   no.    4 value from time series:   111.50     for time:  222.0     to  223.0    
RIV   no.    5 value from time series:   115.10     for time:  222.0     to  223.0    
RIV   no.    6 value from time series:   115.10     for time:  222.0     to  223.0    
RIV   no.    7 value from time series:   104.00     for time:  222.0     to  223.0    
RIV   no.    8 value from time series:   104.00     for time:  222.0     to  223.0    
RIV   no.    9 value from time series:   113.50     for time:  222.0     to  223.0    
RIV   no.   10 value from time series:   113.50     for time:  222.0     to  223.0    
RIV   no.    1 value from time series:   101.00     for time:  222.0     to  223.0    
RIV   no.    2 value from time series:   101.00     for time:  222.0     to  223.0    
RIV   no.    3 value from time series:   111.50     for time:  222.0     to  223.0    
RIV   no.    4 value from time series:   111.50     for time:  222.0     to  223.0    
RIV   no.    5 value from time series:   115.10     for time:  222.0     to  223.0    
RIV   no.    6 value from time series:   115.10     for time:  222.0     to  223.0    
RIV   no.    7 value from time series:   104.00     for time:  222.0     to  223.0    
RIV   no.    8 value from time series:   104.00     for time:  222.0     to  223.0    
RIV   no.    9 value from time series:   113.50     for time:  222.0     to  223.0    
RIV   no.   10 value from time series:   113.50     for time:  222.0     to  223.0    

 NO OUTPUT CONTROL FOR STRESS PERIOD    7   TIME STEP   71
RIV   no.    1 value from time series:   101.00     for time:  223.0     to  224.0    
RIV   no.    2 value from time series:   101.00     for time:  223.0     to  224.0    
RIV   no.    3 value from time series:   111.50     for time:  223.0     to  224.0    
RIV   no.    4 value from time series:   111.50     for time:  223.0     to  224.0    
RIV   no.    5 value from time series:   115.10     for time:  223.0     to  224.0    
RIV   no.    6 value from time series:   115.10     for time:  223.0     to  224.0    
RIV   no.    7 value from time series:   104.00     for time:  223.0     to  224.0    
RIV   no.    8 value from time series:   104.00     for time:  223.0     to  224.0    
RIV   no.    9 value from time series:   113.50     for time:  223.0     to  224.0    
RIV   no.   10 value from time series:   113.50     for time:  223.0     to  224.0    
RIV   no.    1 value from time series:   101.00     for time:  223.0     to  224.0    
RIV   no.    2 value from time series:   101.00     for time:  223.0     to  224.0    
RIV   no.    3 value from time series:   111.50     for time:  223.0     to  224.0    
RIV   no.    4 value from time series:   111.50     for time:  223.0     to  224.0    
RIV   no.    5 value from time series:   115.10     for time:  223.0     to  224.0    
RIV   no.    6 value from time series:   115.10     for time:  223.0     to  224.0    
RIV   no.    7 value from time series:   104.00     for time:  223.0     to  224.0    
RIV   no.    8 value from time series:   104.00     for time:  223.0     to  224.0    
RIV   no.    9 value from time series:   113.50     for time:  223.0     to  224.0    
RIV   no.   10 value from time series:   113.50     for time:  223.0     to  224.0    

 NO OUTPUT CONTROL FOR STRESS PERIOD    7   TIME STEP   72
RIV   no.    1 value from time series:   101.00     for time:  224.0     to  225.0    
RIV   no.    2 value from time series:   101.00     for time:  224.0     to  225.0    
RIV   no.    3 value from time series:   111.50     for time:  224.0     to  225.0    
RIV   no.    4 value from time series:   111.50     for time:  224.0     to  225.0    
RIV   no.    5 value from time series:   115.10     for time:  224.0     to  225.0    
RIV   no.    6 value from time series:   115.10     for time:  224.0     to  225.0    
RIV   no.    7 value from time series:   104.00     for time:  224.0     to  225.0    
RIV   no.    8 value from time series:   104.00     for time:  224.0     to  225.0    
RIV   no.    9 value from time series:   113.50     for time:  224.0     to  225.0    
RIV   no.   10 value from time series:   113.50     for time:  224.0     to  225.0    
RIV   no.    1 value from time series:   101.00     for time:  224.0     to  225.0    
RIV   no.    2 value from time series:   101.00     for time:  224.0     to  225.0    
RIV   no.    3 value from time series:   111.50     for time:  224.0     to  225.0    
RIV   no.    4 value from time series:   111.50     for time:  224.0     to  225.0    
RIV   no.    5 value from time series:   115.10     for time:  224.0     to  225.0    
RIV   no.    6 value from time series:   115.10     for time:  224.0     to  225.0    
RIV   no.    7 value from time series:   104.00     for time:  224.0     to  225.0    
RIV   no.    8 value from time series:   104.00     for time:  224.0     to  225.0    
RIV   no.    9 value from time series:   113.50     for time:  224.0     to  225.0    
RIV   no.   10 value from time series:   113.50     for time:  224.0     to  225.0    

 NO OUTPUT CONTROL FOR STRESS PERIOD    7   TIME STEP   73
RIV   no.    1 value from time series:   101.00     for time:  225.0     to  226.0    
RIV   no.    2 value from time series:   101.00     for time:  225.0     to  226.0    
RIV   no.    3 value from time series:   111.50     for time:  225.0     to  226.0    
RIV   no.    4 value from time series:   111.50     for time:  225.0     to  226.0    
RIV   no.    5 value from time series:   115.10     for time:  225.0     to  226.0    
RIV   no.    6 value from time series:   115.10     for time:  225.0     to  226.0    
RIV   no.    7 value from time series:   104.00     for time:  225.0     to  226.0    
RIV   no.    8 value from time series:   104.00     for time:  225.0     to  226.0    
RIV   no.    9 value from time series:   113.50     for time:  225.0     to  226.0    
RIV   no.   10 value from time series:   113.50     for time:  225.0     to  226.0    
RIV   no.    1 value from time series:   101.00     for time:  225.0     to  226.0    
RIV   no.    2 value from time series:   101.00     for time:  225.0     to  226.0    
RIV   no.    3 value from time series:   111.50     for time:  225.0     to  226.0    
RIV   no.    4 value from time series:   111.50     for time:  225.0     to  226.0    
RIV   no.    5 value from time series:   115.10     for time:  225.0     to  226.0    
RIV   no.    6 value from time series:   115.10     for time:  225.0     to  226.0    
RIV   no.    7 value from time series:   104.00     for time:  225.0     to  226.0    
RIV   no.    8 value from time series:   104.00     for time:  225.0     to  226.0    
RIV   no.    9 value from time series:   113.50     for time:  225.0     to  226.0    
RIV   no.   10 value from time series:   113.50     for time:  225.0     to  226.0    

 NO OUTPUT CONTROL FOR STRESS PERIOD    7   TIME STEP   74
RIV   no.    1 value from time series:   101.00     for time:  226.0     to  227.0    
RIV   no.    2 value from time series:   101.00     for time:  226.0     to  227.0    
RIV   no.    3 value from time series:   111.50     for time:  226.0     to  227.0    
RIV   no.    4 value from time series:   111.50     for time:  226.0     to  227.0    
RIV   no.    5 value from time series:   115.10     for time:  226.0     to  227.0    
RIV   no.    6 value from time series:   115.10     for time:  226.0     to  227.0    
RIV   no.    7 value from time series:   104.00     for time:  226.0     to  227.0    
RIV   no.    8 value from time series:   104.00     for time:  226.0     to  227.0    
RIV   no.    9 value from time series:   113.50     for time:  226.0     to  227.0    
RIV   no.   10 value from time series:   113.50     for time:  226.0     to  227.0    
RIV   no.    1 value from time series:   101.00     for time:  226.0     to  227.0    
RIV   no.    2 value from time series:   101.00     for time:  226.0     to  227.0    
RIV   no.    3 value from time series:   111.50     for time:  226.0     to  227.0    
RIV   no.    4 value from time series:   111.50     for time:  226.0     to  227.0    
RIV   no.    5 value from time series:   115.10     for time:  226.0     to  227.0    
RIV   no.    6 value from time series:   115.10     for time:  226.0     to  227.0    
RIV   no.    7 value from time series:   104.00     for time:  226.0     to  227.0    
RIV   no.    8 value from time series:   104.00     for time:  226.0     to  227.0    
RIV   no.    9 value from time series:   113.50     for time:  226.0     to  227.0    
RIV   no.   10 value from time series:   113.50     for time:  226.0     to  227.0    

 NO OUTPUT CONTROL FOR STRESS PERIOD    7   TIME STEP   75
RIV   no.    1 value from time series:   101.00     for time:  227.0     to  228.0    
RIV   no.    2 value from time series:   101.00     for time:  227.0     to  228.0    
RIV   no.    3 value from time series:   111.50     for time:  227.0     to  228.0    
RIV   no.    4 value from time series:   111.50     for time:  227.0     to  228.0    
RIV   no.    5 value from time series:   115.10     for time:  227.0     to  228.0    
RIV   no.    6 value from time series:   115.10     for time:  227.0     to  228.0    
RIV   no.    7 value from time series:   104.00     for time:  227.0     to  228.0    
RIV   no.    8 value from time series:   104.00     for time:  227.0     to  228.0    
RIV   no.    9 value from time series:   113.50     for time:  227.0     to  228.0    
RIV   no.   10 value from time series:   113.50     for time:  227.0     to  228.0    
RIV   no.    1 value from time series:   101.00     for time:  227.0     to  228.0    
RIV   no.    2 value from time series:   101.00     for time:  227.0     to  228.0    
RIV   no.    3 value from time series:   111.50     for time:  227.0     to  228.0    
RIV   no.    4 value from time series:   111.50     for time:  227.0     to  228.0    
RIV   no.    5 value from time series:   115.10     for time:  227.0     to  228.0    
RIV   no.    6 value from time series:   115.10     for time:  227.0     to  228.0    
RIV   no.    7 value from time series:   104.00     for time:  227.0     to  228.0    
RIV   no.    8 value from time series:   104.00     for time:  227.0     to  228.0    
RIV   no.    9 value from time series:   113.50     for time:  227.0     to  228.0    
RIV   no.   10 value from time series:   113.50     for time:  227.0     to  228.0    

 NO OUTPUT CONTROL FOR STRESS PERIOD    7   TIME STEP   76
RIV   no.    1 value from time series:   101.00     for time:  228.0     to  229.0    
RIV   no.    2 value from time series:   101.00     for time:  228.0     to  229.0    
RIV   no.    3 value from time series:   111.50     for time:  228.0     to  229.0    
RIV   no.    4 value from time series:   111.50     for time:  228.0     to  229.0    
RIV   no.    5 value from time series:   115.10     for time:  228.0     to  229.0    
RIV   no.    6 value from time series:   115.10     for time:  228.0     to  229.0    
RIV   no.    7 value from time series:   104.00     for time:  228.0     to  229.0    
RIV   no.    8 value from time series:   104.00     for time:  228.0     to  229.0    
RIV   no.    9 value from time series:   113.50     for time:  228.0     to  229.0    
RIV   no.   10 value from time series:   113.50     for time:  228.0     to  229.0    
RIV   no.    1 value from time series:   101.00     for time:  228.0     to  229.0    
RIV   no.    2 value from time series:   101.00     for time:  228.0     to  229.0    
RIV   no.    3 value from time series:   111.50     for time:  228.0     to  229.0    
RIV   no.    4 value from time series:   111.50     for time:  228.0     to  229.0    
RIV   no.    5 value from time series:   115.10     for time:  228.0     to  229.0    
RIV   no.    6 value from time series:   115.10     for time:  228.0     to  229.0    
RIV   no.    7 value from time series:   104.00     for time:  228.0     to  229.0    
RIV   no.    8 value from time series:   104.00     for time:  228.0     to  229.0    
RIV   no.    9 value from time series:   113.50     for time:  228.0     to  229.0    
RIV   no.   10 value from time series:   113.50     for time:  228.0     to  229.0    

 NO OUTPUT CONTROL FOR STRESS PERIOD    7   TIME STEP   77
RIV   no.    1 value from time series:   101.00     for time:  229.0     to  230.0    
RIV   no.    2 value from time series:   101.00     for time:  229.0     to  230.0    
RIV   no.    3 value from time series:   111.50     for time:  229.0     to  230.0    
RIV   no.    4 value from time series:   111.50     for time:  229.0     to  230.0    
RIV   no.    5 value from time series:   115.10     for time:  229.0     to  230.0    
RIV   no.    6 value from time series:   115.10     for time:  229.0     to  230.0    
RIV   no.    7 value from time series:   104.00     for time:  229.0     to  230.0    
RIV   no.    8 value from time series:   104.00     for time:  229.0     to  230.0    
RIV   no.    9 value from time series:   113.50     for time:  229.0     to  230.0    
RIV   no.   10 value from time series:   113.50     for time:  229.0     to  230.0    
RIV   no.    1 value from time series:   101.00     for time:  229.0     to  230.0    
RIV   no.    2 value from time series:   101.00     for time:  229.0     to  230.0    
RIV   no.    3 value from time series:   111.50     for time:  229.0     to  230.0    
RIV   no.    4 value from time series:   111.50     for time:  229.0     to  230.0    
RIV   no.    5 value from time series:   115.10     for time:  229.0     to  230.0    
RIV   no.    6 value from time series:   115.10     for time:  229.0     to  230.0    
RIV   no.    7 value from time series:   104.00     for time:  229.0     to  230.0    
RIV   no.    8 value from time series:   104.00     for time:  229.0     to  230.0    
RIV   no.    9 value from time series:   113.50     for time:  229.0     to  230.0    
RIV   no.   10 value from time series:   113.50     for time:  229.0     to  230.0    

 NO OUTPUT CONTROL FOR STRESS PERIOD    7   TIME STEP   78
RIV   no.    1 value from time series:   101.00     for time:  230.0     to  231.0    
RIV   no.    2 value from time series:   101.00     for time:  230.0     to  231.0    
RIV   no.    3 value from time series:   111.50     for time:  230.0     to  231.0    
RIV   no.    4 value from time series:   111.50     for time:  230.0     to  231.0    
RIV   no.    5 value from time series:   115.10     for time:  230.0     to  231.0    
RIV   no.    6 value from time series:   115.10     for time:  230.0     to  231.0    
RIV   no.    7 value from time series:   104.00     for time:  230.0     to  231.0    
RIV   no.    8 value from time series:   104.00     for time:  230.0     to  231.0    
RIV   no.    9 value from time series:   113.50     for time:  230.0     to  231.0    
RIV   no.   10 value from time series:   113.50     for time:  230.0     to  231.0    
RIV   no.    1 value from time series:   101.00     for time:  230.0     to  231.0    
RIV   no.    2 value from time series:   101.00     for time:  230.0     to  231.0    
RIV   no.    3 value from time series:   111.50     for time:  230.0     to  231.0    
RIV   no.    4 value from time series:   111.50     for time:  230.0     to  231.0    
RIV   no.    5 value from time series:   115.10     for time:  230.0     to  231.0    
RIV   no.    6 value from time series:   115.10     for time:  230.0     to  231.0    
RIV   no.    7 value from time series:   104.00     for time:  230.0     to  231.0    
RIV   no.    8 value from time series:   104.00     for time:  230.0     to  231.0    
RIV   no.    9 value from time series:   113.50     for time:  230.0     to  231.0    
RIV   no.   10 value from time series:   113.50     for time:  230.0     to  231.0    

 NO OUTPUT CONTROL FOR STRESS PERIOD    7   TIME STEP   79
RIV   no.    1 value from time series:   101.00     for time:  231.0     to  232.0    
RIV   no.    2 value from time series:   101.00     for time:  231.0     to  232.0    
RIV   no.    3 value from time series:   111.50     for time:  231.0     to  232.0    
RIV   no.    4 value from time series:   111.50     for time:  231.0     to  232.0    
RIV   no.    5 value from time series:   115.10     for time:  231.0     to  232.0    
RIV   no.    6 value from time series:   115.10     for time:  231.0     to  232.0    
RIV   no.    7 value from time series:   104.00     for time:  231.0     to  232.0    
RIV   no.    8 value from time series:   104.00     for time:  231.0     to  232.0    
RIV   no.    9 value from time series:   113.50     for time:  231.0     to  232.0    
RIV   no.   10 value from time series:   113.50     for time:  231.0     to  232.0    
RIV   no.    1 value from time series:   101.00     for time:  231.0     to  232.0    
RIV   no.    2 value from time series:   101.00     for time:  231.0     to  232.0    
RIV   no.    3 value from time series:   111.50     for time:  231.0     to  232.0    
RIV   no.    4 value from time series:   111.50     for time:  231.0     to  232.0    
RIV   no.    5 value from time series:   115.10     for time:  231.0     to  232.0    
RIV   no.    6 value from time series:   115.10     for time:  231.0     to  232.0    
RIV   no.    7 value from time series:   104.00     for time:  231.0     to  232.0    
RIV   no.    8 value from time series:   104.00     for time:  231.0     to  232.0    
RIV   no.    9 value from time series:   113.50     for time:  231.0     to  232.0    
RIV   no.   10 value from time series:   113.50     for time:  231.0     to  232.0    

 NO OUTPUT CONTROL FOR STRESS PERIOD    7   TIME STEP   80
RIV   no.    1 value from time series:   101.00     for time:  232.0     to  233.0    
RIV   no.    2 value from time series:   101.00     for time:  232.0     to  233.0    
RIV   no.    3 value from time series:   111.50     for time:  232.0     to  233.0    
RIV   no.    4 value from time series:   111.50     for time:  232.0     to  233.0    
RIV   no.    5 value from time series:   115.10     for time:  232.0     to  233.0    
RIV   no.    6 value from time series:   115.10     for time:  232.0     to  233.0    
RIV   no.    7 value from time series:   104.00     for time:  232.0     to  233.0    
RIV   no.    8 value from time series:   104.00     for time:  232.0     to  233.0    
RIV   no.    9 value from time series:   113.50     for time:  232.0     to  233.0    
RIV   no.   10 value from time series:   113.50     for time:  232.0     to  233.0    
RIV   no.    1 value from time series:   101.00     for time:  232.0     to  233.0    
RIV   no.    2 value from time series:   101.00     for time:  232.0     to  233.0    
RIV   no.    3 value from time series:   111.50     for time:  232.0     to  233.0    
RIV   no.    4 value from time series:   111.50     for time:  232.0     to  233.0    
RIV   no.    5 value from time series:   115.10     for time:  232.0     to  233.0    
RIV   no.    6 value from time series:   115.10     for time:  232.0     to  233.0    
RIV   no.    7 value from time series:   104.00     for time:  232.0     to  233.0    
RIV   no.    8 value from time series:   104.00     for time:  232.0     to  233.0    
RIV   no.    9 value from time series:   113.50     for time:  232.0     to  233.0    
RIV   no.   10 value from time series:   113.50     for time:  232.0     to  233.0    

 NO OUTPUT CONTROL FOR STRESS PERIOD    7   TIME STEP   81
RIV   no.    1 value from time series:   101.00     for time:  233.0     to  234.0    
RIV   no.    2 value from time series:   101.00     for time:  233.0     to  234.0    
RIV   no.    3 value from time series:   111.50     for time:  233.0     to  234.0    
RIV   no.    4 value from time series:   111.50     for time:  233.0     to  234.0    
RIV   no.    5 value from time series:   115.10     for time:  233.0     to  234.0    
RIV   no.    6 value from time series:   115.10     for time:  233.0     to  234.0    
RIV   no.    7 value from time series:   104.00     for time:  233.0     to  234.0    
RIV   no.    8 value from time series:   104.00     for time:  233.0     to  234.0    
RIV   no.    9 value from time series:   113.50     for time:  233.0     to  234.0    
RIV   no.   10 value from time series:   113.50     for time:  233.0     to  234.0    
RIV   no.    1 value from time series:   101.00     for time:  233.0     to  234.0    
RIV   no.    2 value from time series:   101.00     for time:  233.0     to  234.0    
RIV   no.    3 value from time series:   111.50     for time:  233.0     to  234.0    
RIV   no.    4 value from time series:   111.50     for time:  233.0     to  234.0    
RIV   no.    5 value from time series:   115.10     for time:  233.0     to  234.0    
RIV   no.    6 value from time series:   115.10     for time:  233.0     to  234.0    
RIV   no.    7 value from time series:   104.00     for time:  233.0     to  234.0    
RIV   no.    8 value from time series:   104.00     for time:  233.0     to  234.0    
RIV   no.    9 value from time series:   113.50     for time:  233.0     to  234.0    
RIV   no.   10 value from time series:   113.50     for time:  233.0     to  234.0    

 NO OUTPUT CONTROL FOR STRESS PERIOD    7   TIME STEP   82
RIV   no.    1 value from time series:   101.00     for time:  234.0     to  235.0    
RIV   no.    2 value from time series:   101.00     for time:  234.0     to  235.0    
RIV   no.    3 value from time series:   111.50     for time:  234.0     to  235.0    
RIV   no.    4 value from time series:   111.50     for time:  234.0     to  235.0    
RIV   no.    5 value from time series:   115.10     for time:  234.0     to  235.0    
RIV   no.    6 value from time series:   115.10     for time:  234.0     to  235.0    
RIV   no.    7 value from time series:   104.00     for time:  234.0     to  235.0    
RIV   no.    8 value from time series:   104.00     for time:  234.0     to  235.0    
RIV   no.    9 value from time series:   113.50     for time:  234.0     to  235.0    
RIV   no.   10 value from time series:   113.50     for time:  234.0     to  235.0    
RIV   no.    1 value from time series:   101.00     for time:  234.0     to  235.0    
RIV   no.    2 value from time series:   101.00     for time:  234.0     to  235.0    
RIV   no.    3 value from time series:   111.50     for time:  234.0     to  235.0    
RIV   no.    4 value from time series:   111.50     for time:  234.0     to  235.0    
RIV   no.    5 value from time series:   115.10     for time:  234.0     to  235.0    
RIV   no.    6 value from time series:   115.10     for time:  234.0     to  235.0    
RIV   no.    7 value from time series:   104.00     for time:  234.0     to  235.0    
RIV   no.    8 value from time series:   104.00     for time:  234.0     to  235.0    
RIV   no.    9 value from time series:   113.50     for time:  234.0     to  235.0    
RIV   no.   10 value from time series:   113.50     for time:  234.0     to  235.0    

 NO OUTPUT CONTROL FOR STRESS PERIOD    7   TIME STEP   83
RIV   no.    1 value from time series:   101.00     for time:  235.0     to  236.0    
RIV   no.    2 value from time series:   101.00     for time:  235.0     to  236.0    
RIV   no.    3 value from time series:   111.50     for time:  235.0     to  236.0    
RIV   no.    4 value from time series:   111.50     for time:  235.0     to  236.0    
RIV   no.    5 value from time series:   115.10     for time:  235.0     to  236.0    
RIV   no.    6 value from time series:   115.10     for time:  235.0     to  236.0    
RIV   no.    7 value from time series:   104.00     for time:  235.0     to  236.0    
RIV   no.    8 value from time series:   104.00     for time:  235.0     to  236.0    
RIV   no.    9 value from time series:   113.50     for time:  235.0     to  236.0    
RIV   no.   10 value from time series:   113.50     for time:  235.0     to  236.0    
RIV   no.    1 value from time series:   101.00     for time:  235.0     to  236.0    
RIV   no.    2 value from time series:   101.00     for time:  235.0     to  236.0    
RIV   no.    3 value from time series:   111.50     for time:  235.0     to  236.0    
RIV   no.    4 value from time series:   111.50     for time:  235.0     to  236.0    
RIV   no.    5 value from time series:   115.10     for time:  235.0     to  236.0    
RIV   no.    6 value from time series:   115.10     for time:  235.0     to  236.0    
RIV   no.    7 value from time series:   104.00     for time:  235.0     to  236.0    
RIV   no.    8 value from time series:   104.00     for time:  235.0     to  236.0    
RIV   no.    9 value from time series:   113.50     for time:  235.0     to  236.0    
RIV   no.   10 value from time series:   113.50     for time:  235.0     to  236.0    

 NO OUTPUT CONTROL FOR STRESS PERIOD    7   TIME STEP   84
RIV   no.    1 value from time series:   101.00     for time:  236.0     to  237.0    
RIV   no.    2 value from time series:   101.00     for time:  236.0     to  237.0    
RIV   no.    3 value from time series:   111.50     for time:  236.0     to  237.0    
RIV   no.    4 value from time series:   111.50     for time:  236.0     to  237.0    
RIV   no.    5 value from time series:   115.10     for time:  236.0     to  237.0    
RIV   no.    6 value from time series:   115.10     for time:  236.0     to  237.0    
RIV   no.    7 value from time series:   104.00     for time:  236.0     to  237.0    
RIV   no.    8 value from time series:   104.00     for time:  236.0     to  237.0    
RIV   no.    9 value from time series:   113.50     for time:  236.0     to  237.0    
RIV   no.   10 value from time series:   113.50     for time:  236.0     to  237.0    
RIV   no.    1 value from time series:   101.00     for time:  236.0     to  237.0    
RIV   no.    2 value from time series:   101.00     for time:  236.0     to  237.0    
RIV   no.    3 value from time series:   111.50     for time:  236.0     to  237.0    
RIV   no.    4 value from time series:   111.50     for time:  236.0     to  237.0    
RIV   no.    5 value from time series:   115.10     for time:  236.0     to  237.0    
RIV   no.    6 value from time series:   115.10     for time:  236.0     to  237.0    
RIV   no.    7 value from time series:   104.00     for time:  236.0     to  237.0    
RIV   no.    8 value from time series:   104.00     for time:  236.0     to  237.0    
RIV   no.    9 value from time series:   113.50     for time:  236.0     to  237.0    
RIV   no.   10 value from time series:   113.50     for time:  236.0     to  237.0    

 NO OUTPUT CONTROL FOR STRESS PERIOD    7   TIME STEP   85
RIV   no.    1 value from time series:   101.00     for time:  237.0     to  238.0    
RIV   no.    2 value from time series:   101.00     for time:  237.0     to  238.0    
RIV   no.    3 value from time series:   111.50     for time:  237.0     to  238.0    
RIV   no.    4 value from time series:   111.50     for time:  237.0     to  238.0    
RIV   no.    5 value from time series:   115.10     for time:  237.0     to  238.0    
RIV   no.    6 value from time series:   115.10     for time:  237.0     to  238.0    
RIV   no.    7 value from time series:   104.00     for time:  237.0     to  238.0    
RIV   no.    8 value from time series:   104.00     for time:  237.0     to  238.0    
RIV   no.    9 value from time series:   113.50     for time:  237.0     to  238.0    
RIV   no.   10 value from time series:   113.50     for time:  237.0     to  238.0    
RIV   no.    1 value from time series:   101.00     for time:  237.0     to  238.0    
RIV   no.    2 value from time series:   101.00     for time:  237.0     to  238.0    
RIV   no.    3 value from time series:   111.50     for time:  237.0     to  238.0    
RIV   no.    4 value from time series:   111.50     for time:  237.0     to  238.0    
RIV   no.    5 value from time series:   115.10     for time:  237.0     to  238.0    
RIV   no.    6 value from time series:   115.10     for time:  237.0     to  238.0    
RIV   no.    7 value from time series:   104.00     for time:  237.0     to  238.0    
RIV   no.    8 value from time series:   104.00     for time:  237.0     to  238.0    
RIV   no.    9 value from time series:   113.50     for time:  237.0     to  238.0    
RIV   no.   10 value from time series:   113.50     for time:  237.0     to  238.0    

 NO OUTPUT CONTROL FOR STRESS PERIOD    7   TIME STEP   86
RIV   no.    1 value from time series:   101.00     for time:  238.0     to  239.0    
RIV   no.    2 value from time series:   101.00     for time:  238.0     to  239.0    
RIV   no.    3 value from time series:   111.50     for time:  238.0     to  239.0    
RIV   no.    4 value from time series:   111.50     for time:  238.0     to  239.0    
RIV   no.    5 value from time series:   115.10     for time:  238.0     to  239.0    
RIV   no.    6 value from time series:   115.10     for time:  238.0     to  239.0    
RIV   no.    7 value from time series:   104.00     for time:  238.0     to  239.0    
RIV   no.    8 value from time series:   104.00     for time:  238.0     to  239.0    
RIV   no.    9 value from time series:   113.50     for time:  238.0     to  239.0    
RIV   no.   10 value from time series:   113.50     for time:  238.0     to  239.0    
RIV   no.    1 value from time series:   101.00     for time:  238.0     to  239.0    
RIV   no.    2 value from time series:   101.00     for time:  238.0     to  239.0    
RIV   no.    3 value from time series:   111.50     for time:  238.0     to  239.0    
RIV   no.    4 value from time series:   111.50     for time:  238.0     to  239.0    
RIV   no.    5 value from time series:   115.10     for time:  238.0     to  239.0    
RIV   no.    6 value from time series:   115.10     for time:  238.0     to  239.0    
RIV   no.    7 value from time series:   104.00     for time:  238.0     to  239.0    
RIV   no.    8 value from time series:   104.00     for time:  238.0     to  239.0    
RIV   no.    9 value from time series:   113.50     for time:  238.0     to  239.0    
RIV   no.   10 value from time series:   113.50     for time:  238.0     to  239.0    

 NO OUTPUT CONTROL FOR STRESS PERIOD    7   TIME STEP   87
RIV   no.    1 value from time series:   101.00     for time:  239.0     to  240.0    
RIV   no.    2 value from time series:   101.00     for time:  239.0     to  240.0    
RIV   no.    3 value from time series:   111.50     for time:  239.0     to  240.0    
RIV   no.    4 value from time series:   111.50     for time:  239.0     to  240.0    
RIV   no.    5 value from time series:   115.10     for time:  239.0     to  240.0    
RIV   no.    6 value from time series:   115.10     for time:  239.0     to  240.0    
RIV   no.    7 value from time series:   104.00     for time:  239.0     to  240.0    
RIV   no.    8 value from time series:   104.00     for time:  239.0     to  240.0    
RIV   no.    9 value from time series:   113.50     for time:  239.0     to  240.0    
RIV   no.   10 value from time series:   113.50     for time:  239.0     to  240.0    
RIV   no.    1 value from time series:   101.00     for time:  239.0     to  240.0    
RIV   no.    2 value from time series:   101.00     for time:  239.0     to  240.0    
RIV   no.    3 value from time series:   111.50     for time:  239.0     to  240.0    
RIV   no.    4 value from time series:   111.50     for time:  239.0     to  240.0    
RIV   no.    5 value from time series:   115.10     for time:  239.0     to  240.0    
RIV   no.    6 value from time series:   115.10     for time:  239.0     to  240.0    
RIV   no.    7 value from time series:   104.00     for time:  239.0     to  240.0    
RIV   no.    8 value from time series:   104.00     for time:  239.0     to  240.0    
RIV   no.    9 value from time series:   113.50     for time:  239.0     to  240.0    
RIV   no.   10 value from time series:   113.50     for time:  239.0     to  240.0    

 NO OUTPUT CONTROL FOR STRESS PERIOD    7   TIME STEP   88
RIV   no.    1 value from time series:   101.00     for time:  240.0     to  241.0    
RIV   no.    2 value from time series:   101.00     for time:  240.0     to  241.0    
RIV   no.    3 value from time series:   111.50     for time:  240.0     to  241.0    
RIV   no.    4 value from time series:   111.50     for time:  240.0     to  241.0    
RIV   no.    5 value from time series:   115.10     for time:  240.0     to  241.0    
RIV   no.    6 value from time series:   115.10     for time:  240.0     to  241.0    
RIV   no.    7 value from time series:   104.00     for time:  240.0     to  241.0    
RIV   no.    8 value from time series:   104.00     for time:  240.0     to  241.0    
RIV   no.    9 value from time series:   113.50     for time:  240.0     to  241.0    
RIV   no.   10 value from time series:   113.50     for time:  240.0     to  241.0    

 RchArraySeries           =  2.500000E-03 FOR LAYER   1
RIV   no.    1 value from time series:   101.00     for time:  240.0     to  241.0    
RIV   no.    2 value from time series:   101.00     for time:  240.0     to  241.0    
RIV   no.    3 value from time series:   111.50     for time:  240.0     to  241.0    
RIV   no.    4 value from time series:   111.50     for time:  240.0     to  241.0    
RIV   no.    5 value from time series:   115.10     for time:  240.0     to  241.0    
RIV   no.    6 value from time series:   115.10     for time:  240.0     to  241.0    
RIV   no.    7 value from time series:   104.00     for time:  240.0     to  241.0    
RIV   no.    8 value from time series:   104.00     for time:  240.0     to  241.0    
RIV   no.    9 value from time series:   113.50     for time:  240.0     to  241.0    
RIV   no.   10 value from time series:   113.50     for time:  240.0     to  241.0    

 NO OUTPUT CONTROL FOR STRESS PERIOD    7   TIME STEP   89
RIV   no.    1 value from time series:   101.00     for time:  241.0     to  242.0    
RIV   no.    2 value from time series:   101.00     for time:  241.0     to  242.0    
RIV   no.    3 value from time series:   111.50     for time:  241.0     to  242.0    
RIV   no.    4 value from time series:   111.50     for time:  241.0     to  242.0    
RIV   no.    5 value from time series:   115.10     for time:  241.0     to  242.0    
RIV   no.    6 value from time series:   115.10     for time:  241.0     to  242.0    
RIV   no.    7 value from time series:   104.00     for time:  241.0     to  242.0    
RIV   no.    8 value from time series:   104.00     for time:  241.0     to  242.0    
RIV   no.    9 value from time series:   113.50     for time:  241.0     to  242.0    
RIV   no.   10 value from time series:   113.50     for time:  241.0     to  242.0    
RIV   no.    1 value from time series:   101.00     for time:  241.0     to  242.0    
RIV   no.    2 value from time series:   101.00     for time:  241.0     to  242.0    
RIV   no.    3 value from time series:   111.50     for time:  241.0     to  242.0    
RIV   no.    4 value from time series:   111.50     for time:  241.0     to  242.0    
RIV   no.    5 value from time series:   115.10     for time:  241.0     to  242.0    
RIV   no.    6 value from time series:   115.10     for time:  241.0     to  242.0    
RIV   no.    7 value from time series:   104.00     for time:  241.0     to  242.0    
RIV   no.    8 value from time series:   104.00     for time:  241.0     to  242.0    
RIV   no.    9 value from time series:   113.50     for time:  241.0     to  242.0    
RIV   no.   10 value from time series:   113.50     for time:  241.0     to  242.0    

 NO OUTPUT CONTROL FOR STRESS PERIOD    7   TIME STEP   90
RIV   no.    1 value from time series:   101.00     for time:  242.0     to  243.0    
RIV   no.    2 value from time series:   101.00     for time:  242.0     to  243.0    
RIV   no.    3 value from time series:   111.50     for time:  242.0     to  243.0    
RIV   no.    4 value from time series:   111.50     for time:  242.0     to  243.0    
RIV   no.    5 value from time series:   115.10     for time:  242.0     to  243.0    
RIV   no.    6 value from time series:   115.10     for time:  242.0     to  243.0    
RIV   no.    7 value from time series:   104.00     for time:  242.0     to  243.0    
RIV   no.    8 value from time series:   104.00     for time:  242.0     to  243.0    
RIV   no.    9 value from time series:   113.50     for time:  242.0     to  243.0    
RIV   no.   10 value from time series:   113.50     for time:  242.0     to  243.0    
RIV   no.    1 value from time series:   101.00     for time:  242.0     to  243.0    
RIV   no.    2 value from time series:   101.00     for time:  242.0     to  243.0    
RIV   no.    3 value from time series:   111.50     for time:  242.0     to  243.0    
RIV   no.    4 value from time series:   111.50     for time:  242.0     to  243.0    
RIV   no.    5 value from time series:   115.10     for time:  242.0     to  243.0    
RIV   no.    6 value from time series:   115.10     for time:  242.0     to  243.0    
RIV   no.    7 value from time series:   104.00     for time:  242.0     to  243.0    
RIV   no.    8 value from time series:   104.00     for time:  242.0     to  243.0    
RIV   no.    9 value from time series:   113.50     for time:  242.0     to  243.0    
RIV   no.   10 value from time series:   113.50     for time:  242.0     to  243.0    

 NO OUTPUT CONTROL FOR STRESS PERIOD    7   TIME STEP   91
RIV   no.    1 value from time series:   101.00     for time:  243.0     to  244.0    
RIV   no.    2 value from time series:   101.00     for time:  243.0     to  244.0    
RIV   no.    3 value from time series:   111.50     for time:  243.0     to  244.0    
RIV   no.    4 value from time series:   111.50     for time:  243.0     to  244.0    
RIV   no.    5 value from time series:   115.10     for time:  243.0     to  244.0    
RIV   no.    6 value from time series:   115.10     for time:  243.0     to  244.0    
RIV   no.    7 value from time series:   104.00     for time:  243.0     to  244.0    
RIV   no.    8 value from time series:   104.00     for time:  243.0     to  244.0    
RIV   no.    9 value from time series:   113.50     for time:  243.0     to  244.0    
RIV   no.   10 value from time series:   113.50     for time:  243.0     to  244.0    
RIV   no.    1 value from time series:   101.00     for time:  243.0     to  244.0    
RIV   no.    2 value from time series:   101.00     for time:  243.0     to  244.0    
RIV   no.    3 value from time series:   111.50     for time:  243.0     to  244.0    
RIV   no.    4 value from time series:   111.50     for time:  243.0     to  244.0    
RIV   no.    5 value from time series:   115.10     for time:  243.0     to  244.0    
RIV   no.    6 value from time series:   115.10     for time:  243.0     to  244.0    
RIV   no.    7 value from time series:   104.00     for time:  243.0     to  244.0    
RIV   no.    8 value from time series:   104.00     for time:  243.0     to  244.0    
RIV   no.    9 value from time series:   113.50     for time:  243.0     to  244.0    
RIV   no.   10 value from time series:   113.50     for time:  243.0     to  244.0    

 OUTPUT CONTROL FOR STRESS PERIOD    7   TIME STEP   92
    PRINT BUDGET
    PRINT HEAD
    PRINT HEAD FOR ALL LAYERS
    SAVE BUDGET
    SAVE HEAD
    SAVE HEAD FOR ALL LAYERS
 UBDSV1 SAVING          STORAGE ON UNIT   1016 AT TIME STEP     92, STRESS PERIOD      7
 UBDSV1 SAVING FLOW RIGHT FACE  ON UNIT   1016 AT TIME STEP     92, STRESS PERIOD      7
 UBDSV1 SAVING FLOW FRONT FACE  ON UNIT   1016 AT TIME STEP     92, STRESS PERIOD      7
 UBDSV1 SAVING FLOW LOWER FACE  ON UNIT   1016 AT TIME STEP     92, STRESS PERIOD      7
 UBDSV4 SAVING WELLS NEAR RIVER ON UNIT   1016 AT TIME STEP     92, STRESS PERIOD      7
 UBDSV4 SAVING RIVER            ON UNIT   1016 AT TIME STEP     92, STRESS PERIOD      7

 RIVER              PERIOD  7   STEP 92
 BOUNDARY      1   LAYER   1   ROW     1   COL    15   RATE    -5293.82    
 BOUNDARY      2   LAYER   1   ROW     2   COL    15   RATE    -6424.23      RIV2
 BOUNDARY      3   LAYER   1   ROW     3   COL    15   RATE    -2681.27      RIV3
 BOUNDARY      4   LAYER   1   ROW     4   COL    15   RATE    -4149.34    
 BOUNDARY      5   LAYER   1   ROW     5   COL    15   RATE    -2781.98    
 BOUNDARY      6   LAYER   1   ROW     6   COL    15   RATE    -2127.73    
 BOUNDARY      7   LAYER   1   ROW     7   COL    15   RATE    -6627.54      RIVX
 BOUNDARY      8   LAYER   1   ROW     8   COL    15   RATE    -6481.27      RIVX
 BOUNDARY      9   LAYER   1   ROW     9   COL    15   RATE    -2684.39      RIVX
 BOUNDARY     10   LAYER   1   ROW    10   COL    15   RATE    -3595.72    

 GHB LAKES          PERIOD  7   STEP 92
 BOUNDARY      1   LAYER   1   ROW     3   COL     1   RATE    -15731.6    
 BOUNDARY      2   LAYER   1   ROW     7   COL     1   RATE    -2826.18      GHB2_UPPER
 BOUNDARY      3   LAYER   1   ROW     7   COL     1   RATE    -13588.2      GHB2_LOWER
 UBDSV4 SAVING RECHARGE         ON UNIT   1016 AT TIME STEP     92, STRESS PERIOD      7

 RECHARGE           PERIOD  7   STEP 92
 BOUNDARY      1   LAYER   1   ROW     1   COL     1   RATE     742.708    
 BOUNDARY      2   LAYER   1   ROW     1   COL     2   RATE     742.708    
 BOUNDARY      3   LAYER   1   ROW     1   COL     3   RATE     742.708    
 BOUNDARY      4   LAYER   1   ROW     1   COL     4   RATE     742.708    
 BOUNDARY      5   LAYER   1   ROW     1   COL     5   RATE     742.708    
 BOUNDARY      6   LAYER   1   ROW     1   COL     6   RATE     742.708    
 BOUNDARY      7   LAYER   1   ROW     1   COL     7   RATE     742.708    
 BOUNDARY      8   LAYER   1   ROW     1   COL     8   RATE     742.708    
 BOUNDARY      9   LAYER   1   ROW     1   COL     9   RATE     742.708    
 BOUNDARY     10   LAYER   1   ROW     1   COL    10   RATE     742.708    
 BOUNDARY     11   LAYER   1   ROW     1   COL    11   RATE     742.708    
 BOUNDARY     12   LAYER   1   ROW     1   COL    12   RATE     742.708    
 BOUNDARY     13   LAYER   1   ROW     1   COL    13   RATE     742.708    
 BOUNDARY     14   LAYER   1   ROW     1   COL    14   RATE     742.708    
 BOUNDARY     15   LAYER   1   ROW     1   COL    15   RATE     742.708    
 BOUNDARY     16   LAYER   1   ROW     2   COL     1   RATE     742.708    
 BOUNDARY     17   LAYER   1   ROW     2   COL     2   RATE     742.708    
 BOUNDARY     18   LAYER   1   ROW     2   COL     3   RATE     742.708    
 BOUNDARY     19   LAYER   1   ROW     2   COL     4   RATE     742.708    
 BOUNDARY     20   LAYER   1   ROW     2   COL     5   RATE     742.708    
 BOUNDARY     21   LAYER   1   ROW     2   COL     6   RATE     742.708    
 BOUNDARY     22   LAYER   1   ROW     2   COL     7   RATE     742.708    
 BOUNDARY     23   LAYER   1   ROW     2   COL     8   RATE     742.708    
 BOUNDARY     24   LAYER   1   ROW     2   COL     9   RATE     742.708    
 BOUNDARY     25   LAYER   1   ROW     2   COL    10   RATE     742.708    
 BOUNDARY     26   LAYER   1   ROW     2   COL    11   RATE     742.708    
 BOUNDARY     27   LAYER   1   ROW     2   COL    12   RATE     742.708    
 BOUNDARY     28   LAYER   1   ROW     2   COL    13   RATE     742.708    
 BOUNDARY     29   LAYER   1   ROW     2   COL    14   RATE     742.708    
 BOUNDARY     30   LAYER   1   ROW     2   COL    15   RATE     742.708    
 BOUNDARY     31   LAYER   1   ROW     3   COL     1   RATE     742.708    
 BOUNDARY     32   LAYER   1   ROW     3   COL     2   RATE     742.708    
 BOUNDARY     33   LAYER   1   ROW     3   COL     3   RATE     742.708    
 BOUNDARY     34   LAYER   1   ROW     3   COL     4   RATE     742.708    
 BOUNDARY     35   LAYER   1   ROW     3   COL     5   RATE     742.708    
 BOUNDARY     36   LAYER   1   ROW     3   COL     6   RATE     742.708    
 BOUNDARY     37   LAYER   1   ROW     3   COL     7   RATE     742.708    
 BOUNDARY     38   LAYER   1   ROW     3   COL     8   RATE     742.708    
 BOUNDARY     39   LAYER   1   ROW     3   COL     9   RATE     742.708    
 BOUNDARY     40   LAYER   1   ROW     3   COL    10   RATE     742.708    
 BOUNDARY     41   LAYER   1   ROW     3   COL    11   RATE     742.708    
 BOUNDARY     42   LAYER   1   ROW     3   COL    12   RATE     742.708    
 BOUNDARY     43   LAYER   1   ROW     3   COL    13   RATE     742.708    
 BOUNDARY     44   LAYER   1   ROW     3   COL    14   RATE     742.708    
 BOUNDARY     45   LAYER   1   ROW     3   COL    15   RATE     742.708    
 BOUNDARY     46   LAYER   1   ROW     4   COL     1   RATE     742.708    
 BOUNDARY     47   LAYER   1   ROW     4   COL     2   RATE     742.708    
 BOUNDARY     48   LAYER   1   ROW     4   COL     3   RATE     742.708    
 BOUNDARY     49   LAYER   1   ROW     4   COL     4   RATE     742.708    
 BOUNDARY     50   LAYER   1   ROW     4   COL     5   RATE     742.708    
 BOUNDARY     51   LAYER   1   ROW     4   COL     6   RATE     742.708    
 BOUNDARY     52   LAYER   1   ROW     4   COL     7   RATE     742.708    
 BOUNDARY     53   LAYER   1   ROW     4   COL     8   RATE     742.708    
 BOUNDARY     54   LAYER   1   ROW     4   COL     9   RATE     742.708    
 BOUNDARY     55   LAYER   1   ROW     4   COL    10   RATE     742.708    
 BOUNDARY     56   LAYER   1   ROW     4   COL    11   RATE     742.708    
 BOUNDARY     57   LAYER   1   ROW     4   COL    12   RATE     742.708    
 BOUNDARY     58   LAYER   1   ROW     4   COL    13   RATE     742.708    
 BOUNDARY     59   LAYER   1   ROW     4   COL    14   RATE     742.708    
 BOUNDARY     60   LAYER   1   ROW     4   COL    15   RATE     742.708    
 BOUNDARY     61   LAYER   1   ROW     5   COL     1   RATE     742.708    
 BOUNDARY     62   LAYER   1   ROW     5   COL     2   RATE     742.708    
 BOUNDARY     63   LAYER   1   ROW     5   COL     3   RATE     742.708    
 BOUNDARY     64   LAYER   1   ROW     5   COL     4   RATE     742.708    
 BOUNDARY     65   LAYER   1   ROW     5   COL     5   RATE     742.708    
 BOUNDARY     66   LAYER   1   ROW     5   COL     6   RATE     742.708    
 BOUNDARY     67   LAYER   1   ROW     5   COL     7   RATE     742.708    
 BOUNDARY     68   LAYER   1   ROW     5   COL     8   RATE     742.708    
 BOUNDARY     69   LAYER   1   ROW     5   COL     9   RATE     742.708    
 BOUNDARY     70   LAYER   1   ROW     5   COL    10   RATE     742.708    
 BOUNDARY     71   LAYER   1   ROW     5   COL    11   RATE     742.708    
 BOUNDARY     72   LAYER   1   ROW     5   COL    12   RATE     742.708    
 BOUNDARY     73   LAYER   1   ROW     5   COL    13   RATE     742.708    
 BOUNDARY     74   LAYER   1   ROW     5   COL    14   RATE     742.708    
 BOUNDARY     75   LAYER   1   ROW     5   COL    15   RATE     742.708    
 BOUNDARY     76   LAYER   1   ROW     6   COL     1   RATE     742.708    
 BOUNDARY     77   LAYER   1   ROW     6   COL     2   RATE     742.708    
 BOUNDARY     78   LAYER   1   ROW     6   COL     3   RATE     742.708    
 BOUNDARY     79   LAYER   1   ROW     6   COL     4   RATE     742.708    
 BOUNDARY     80   LAYER   1   ROW     6   COL     5   RATE     742.708    
 BOUNDARY     81   LAYER   1   ROW     6   COL     6   RATE     742.708    
 BOUNDARY     82   LAYER   1   ROW     6   COL     7   RATE     742.708    
 BOUNDARY     83   LAYER   1   ROW     6   COL     8   RATE     742.708    
 BOUNDARY     84   LAYER   1   ROW     6   COL     9   RATE     742.708    
 BOUNDARY     85   LAYER   1   ROW     6   COL    10   RATE     742.708    
 BOUNDARY     86   LAYER   1   ROW     6   COL    11   RATE     742.708    
 BOUNDARY     87   LAYER   1   ROW     6   COL    12   RATE     742.708    
 BOUNDARY     88   LAYER   1   ROW     6   COL    13   RATE     742.708    
 BOUNDARY     89   LAYER   1   ROW     6   COL    14   RATE     742.708    
 BOUNDARY     90   LAYER   1   ROW     6   COL    15   RATE     742.708    
 BOUNDARY     91   LAYER   1   ROW     7   COL     1   RATE     742.708    
 BOUNDARY     92   LAYER   1   ROW     7   COL     2   RATE     742.708    
 BOUNDARY     93   LAYER   1   ROW     7   COL     3   RATE     742.708    
 BOUNDARY     94   LAYER   1   ROW     7   COL     4   RATE     742.708    
 BOUNDARY     95   LAYER   1   ROW     7   COL     5   RATE     742.708    
 BOUNDARY     96   LAYER   1   ROW     7   COL     6   RATE     742.708    
 BOUNDARY     97   LAYER   1   ROW     7   COL     7   RATE     742.708    
 BOUNDARY     98   LAYER   1   ROW     7   COL     8   RATE     742.708    
 BOUNDARY     99   LAYER   1   ROW     7   COL     9   RATE     742.708    
 BOUNDARY    100   LAYER   1   ROW     7   COL    10   RATE     742.708    
 BOUNDARY    101   LAYER   1   ROW     7   COL    11   RATE     742.708    
 BOUNDARY    102   LAYER   1   ROW     7   COL    12   RATE     742.708    
 BOUNDARY    103   LAYER   1   ROW     7   COL    13   RATE     742.708    
 BOUNDARY    104   LAYER   1   ROW     7   COL    14   RATE     742.708    
 BOUNDARY    105   LAYER   1   ROW     7   COL    15   RATE     742.708    
 BOUNDARY    106   LAYER   1   ROW     8   COL     1   RATE     742.708    
 BOUNDARY    107   LAYER   1   ROW     8   COL     2   RATE     742.708    
 BOUNDARY    108   LAYER   1   ROW     8   COL     3   RATE     742.708    
 BOUNDARY    109   LAYER   1   ROW     8   COL     4   RATE     742.708    
 BOUNDARY    110   LAYER   1   ROW     8   COL     5   RATE     742.708    
 BOUNDARY    111   LAYER   1   ROW     8   COL     6   RATE     742.708    
 BOUNDARY    112   LAYER   1   ROW     8   COL     7   RATE     742.708    
 BOUNDARY    113   LAYER   1   ROW     8   COL     8   RATE     742.708    
 BOUNDARY    114   LAYER   1   ROW     8   COL     9   RATE     742.708    
 BOUNDARY    115   LAYER   1   ROW     8   COL    10   RATE     742.708    
 BOUNDARY    116   LAYER   1   ROW     8   COL    11   RATE     742.708    
 BOUNDARY    117   LAYER   1   ROW     8   COL    12   RATE     742.708    
 BOUNDARY    118   LAYER   1   ROW     8   COL    13   RATE     742.708    
 BOUNDARY    119   LAYER   1   ROW     8   COL    14   RATE     742.708    
 BOUNDARY    120   LAYER   1   ROW     8   COL    15   RATE     742.708    
 BOUNDARY    121   LAYER   1   ROW     9   COL     1   RATE     742.708    
 BOUNDARY    122   LAYER   1   ROW     9   COL     2   RATE     742.708    
 BOUNDARY    123   LAYER   1   ROW     9   COL     3   RATE     742.708    
 BOUNDARY    124   LAYER   1   ROW     9   COL     4   RATE     742.708    
 BOUNDARY    125   LAYER   1   ROW     9   COL     5   RATE     742.708    
 BOUNDARY    126   LAYER   1   ROW     9   COL     6   RATE     742.708    
 BOUNDARY    127   LAYER   1   ROW     9   COL     7   RATE     742.708    
 BOUNDARY    128   LAYER   1   ROW     9   COL     8   RATE     742.708    
 BOUNDARY    129   LAYER   1   ROW     9   COL     9   RATE     742.708    
 BOUNDARY    130   LAYER   1   ROW     9   COL    10   RATE     742.708    
 BOUNDARY    131   LAYER   1   ROW     9   COL    11   RATE     742.708    
 BOUNDARY    132   LAYER   1   ROW     9   COL    12   RATE     742.708    
 BOUNDARY    133   LAYER   1   ROW     9   COL    13   RATE     742.708    
 BOUNDARY    134   LAYER   1   ROW     9   COL    14   RATE     742.708    
 BOUNDARY    135   LAYER   1   ROW     9   COL    15   RATE     742.708    
 BOUNDARY    136   LAYER   1   ROW    10   COL     1   RATE     742.708    
 BOUNDARY    137   LAYER   1   ROW    10   COL     2   RATE     742.708    
 BOUNDARY    138   LAYER   1   ROW    10   COL     3   RATE     742.708    
 BOUNDARY    139   LAYER   1   ROW    10   COL     4   RATE     742.708    
 BOUNDARY    140   LAYER   1   ROW    10   COL     5   RATE     742.708    
 BOUNDARY    141   LAYER   1   ROW    10   COL     6   RATE     742.708    
 BOUNDARY    142   LAYER   1   ROW    10   COL     7   RATE     742.708    
 BOUNDARY    143   LAYER   1   ROW    10   COL     8   RATE     742.708    
 BOUNDARY    144   LAYER   1   ROW    10   COL     9   RATE     742.708    
 BOUNDARY    145   LAYER   1   ROW    10   COL    10   RATE     742.708    
 BOUNDARY    146   LAYER   1   ROW    10   COL    11   RATE     742.708    
 BOUNDARY    147   LAYER   1   ROW    10   COL    12   RATE     742.708    
 BOUNDARY    148   LAYER   1   ROW    10   COL    13   RATE     742.708    
 BOUNDARY    149   LAYER   1   ROW    10   COL    14   RATE     742.708    
 BOUNDARY    150   LAYER   1   ROW    10   COL    15   RATE     742.708    
 UBDSV4 SAVING ET SEGS          ON UNIT   1016 AT TIME STEP     92, STRESS PERIOD      7

 ET SEGS            PERIOD  7   STEP 92
 BOUNDARY      1   LAYER   1   ROW     1   COL     1   RATE    -6.33745    
 BOUNDARY      2   LAYER   1   ROW     1   COL     2   RATE    -20.9839    
 BOUNDARY      3   LAYER   1   ROW     1   COL     3   RATE   -100.0000    
 BOUNDARY      4   LAYER   1   ROW     1   COL     4   RATE   -100.0000    
 BOUNDARY      5   LAYER   1   ROW     1   COL     5   RATE   -100.0000    
 BOUNDARY      6   LAYER   1   ROW     1   COL     6   RATE   -100.0000    
 BOUNDARY      7   LAYER   1   ROW     1   COL     7   RATE   -100.0000    
 BOUNDARY      8   LAYER   1   ROW     1   COL     8   RATE   -100.0000    
 BOUNDARY      9   LAYER   1   ROW     1   COL     9   RATE   -100.0000    
 BOUNDARY     10   LAYER   1   ROW     1   COL    10   RATE   -100.0000    
 BOUNDARY     11   LAYER   1   ROW     1   COL    11   RATE   -100.0000    
 BOUNDARY     12   LAYER   1   ROW     1   COL    12   RATE    -38.4105    
 BOUNDARY     13   LAYER   1   ROW     1   COL    13   RATE    -3.29641    
 BOUNDARY     14   LAYER   1   ROW     1   COL    14   RATE     0.00000    
 BOUNDARY     15   LAYER   1   ROW     1   COL    15   RATE     0.00000    
 BOUNDARY     16   LAYER   1   ROW     2   COL     1   RATE     0.00000    
 BOUNDARY     17   LAYER   1   ROW     2   COL     2   RATE    -8.61006    
 BOUNDARY     18   LAYER   1   ROW     2   COL     3   RATE    -95.8792    
 BOUNDARY     19   LAYER   1   ROW     2   COL     4   RATE   -100.0000    
 BOUNDARY     20   LAYER   1   ROW     2   COL     5   RATE   -100.0000    
 BOUNDARY     21   LAYER   1   ROW     2   COL     6   RATE   -100.0000    
 BOUNDARY     22   LAYER   1   ROW     2   COL     7   RATE   -100.0000    
 BOUNDARY     23   LAYER   1   ROW     2   COL     8   RATE   -100.0000    
 BOUNDARY     24   LAYER   1   ROW     2   COL     9   RATE   -100.0000    
 BOUNDARY     25   LAYER   1   ROW     2   COL    10   RATE   -100.0000    
 BOUNDARY     26   LAYER   1   ROW     2   COL    11   RATE   -100.0000    
 BOUNDARY     27   LAYER   1   ROW     2   COL    12   RATE    -47.2485    
 BOUNDARY     28   LAYER   1   ROW     2   COL    13   RATE    -4.27221    
 BOUNDARY     29   LAYER   1   ROW     2   COL    14   RATE     0.00000    
 BOUNDARY     30   LAYER   1   ROW     2   COL    15   RATE     0.00000    
 BOUNDARY     31   LAYER   1   ROW     3   COL     1   RATE     0.00000    
 BOUNDARY     32   LAYER   1   ROW     3   COL     2   RATE    -1.42098    
 BOUNDARY     33   LAYER   1   ROW     3   COL     3   RATE    -63.7977    
 BOUNDARY     34   LAYER   1   ROW     3   COL     4   RATE   -100.0000    
 BOUNDARY     35   LAYER   1   ROW     3   COL     5   RATE   -100.0000    
 BOUNDARY     36   LAYER   1   ROW     3   COL     6   RATE   -100.0000    
 BOUNDARY     37   LAYER   1   ROW     3   COL     7   RATE   -100.0000    
 BOUNDARY     38   LAYER   1   ROW     3   COL     8   RATE   -100.0000    
 BOUNDARY     39   LAYER   1   ROW     3   COL     9   RATE   -100.0000    
 BOUNDARY     40   LAYER   1   ROW     3   COL    10   RATE   -100.0000    
 BOUNDARY     41   LAYER   1   ROW     3   COL    11   RATE   -100.0000    
 BOUNDARY     42   LAYER   1   ROW     3   COL    12   RATE    -62.0675    
 BOUNDARY     43   LAYER   1   ROW     3   COL    13   RATE    -6.04286    
 BOUNDARY     44   LAYER   1   ROW     3   COL    14   RATE     0.00000    
 BOUNDARY     45   LAYER   1   ROW     3   COL    15   RATE     0.00000    
 BOUNDARY     46   LAYER   1   ROW     4   COL     1   RATE     0.00000    
 BOUNDARY     47   LAYER   1   ROW     4   COL     2   RATE    -7.06030    
 BOUNDARY     48   LAYER   1   ROW     4   COL     3   RATE    -84.5819    
 BOUNDARY     49   LAYER   1   ROW     4   COL     4   RATE   -100.0000    
 BOUNDARY     50   LAYER   1   ROW     4   COL     5   RATE   -100.0000    
 BOUNDARY     51   LAYER   1   ROW     4   COL     6   RATE   -100.0000    
 BOUNDARY     52   LAYER   1   ROW     4   COL     7   RATE   -100.0000    
 BOUNDARY     53   LAYER   1   ROW     4   COL     8   RATE   -100.0000    
 BOUNDARY     54   LAYER   1   ROW     4   COL     9   RATE   -100.0000    
 BOUNDARY     55   LAYER   1   ROW     4   COL    10   RATE   -100.0000    
 BOUNDARY     56   LAYER   1   ROW     4   COL    11   RATE   -100.0000    
 BOUNDARY     57   LAYER   1   ROW     4   COL    12   RATE    -76.0065    
 BOUNDARY     58   LAYER   1   ROW     4   COL    13   RATE    -7.46578    
 BOUNDARY     59   LAYER   1   ROW     4   COL    14   RATE     0.00000    
 BOUNDARY     60   LAYER   1   ROW     4   COL    15   RATE     0.00000    
 BOUNDARY     61   LAYER   1   ROW     5   COL     1   RATE   -0.542700    
 BOUNDARY     62   LAYER   1   ROW     5   COL     2   RATE    -10.4350    
 BOUNDARY     63   LAYER   1   ROW     5   COL     3   RATE   -100.0000    
 BOUNDARY     64   LAYER   1   ROW     5   COL     4   RATE   -100.0000    
 BOUNDARY     65   LAYER   1   ROW     5   COL     5   RATE   -100.0000    
 BOUNDARY     66   LAYER   1   ROW     5   COL     6   RATE   -100.0000    
 BOUNDARY     67   LAYER   1   ROW     5   COL     7   RATE   -100.0000    
 BOUNDARY     68   LAYER   1   ROW     5   COL     8   RATE   -100.0000    
 BOUNDARY     69   LAYER   1   ROW     5   COL     9   RATE   -100.0000    
 BOUNDARY     70   LAYER   1   ROW     5   COL    10   RATE   -100.0000    
 BOUNDARY     71   LAYER   1   ROW     5   COL    11   RATE   -100.0000    
 BOUNDARY     72   LAYER   1   ROW     5   COL    12   RATE    -85.4980    
 BOUNDARY     73   LAYER   1   ROW     5   COL    13   RATE    -8.32282    
 BOUNDARY     74   LAYER   1   ROW     5   COL    14   RATE     0.00000    
 BOUNDARY     75   LAYER   1   ROW     5   COL    15   RATE     0.00000    
 BOUNDARY     76   LAYER   1   ROW     6   COL     1   RATE     0.00000    
 BOUNDARY     77   LAYER   1   ROW     6   COL     2   RATE    -8.54941    
 BOUNDARY     78   LAYER   1   ROW     6   COL     3   RATE   -100.0000    
 BOUNDARY     79   LAYER   1   ROW     6   COL     4   RATE   -100.0000    
 BOUNDARY     80   LAYER   1   ROW     6   COL     5   RATE   -100.0000    
 BOUNDARY     81   LAYER   1   ROW     6   COL     6   RATE   -100.0000    
 BOUNDARY     82   LAYER   1   ROW     6   COL     7   RATE   -100.0000    
 BOUNDARY     83   LAYER   1   ROW     6   COL     8   RATE   -100.0000    
 BOUNDARY     84   LAYER   1   ROW     6   COL     9   RATE   -100.0000    
 BOUNDARY     85   LAYER   1   ROW     6   COL    10   RATE   -100.0000    
 BOUNDARY     86   LAYER   1   ROW     6   COL    11   RATE   -100.0000    
 BOUNDARY     87   LAYER   1   ROW     6   COL    12   RATE    -88.6811    
 BOUNDARY     88   LAYER   1   ROW     6   COL    13   RATE    -8.26981    
 BOUNDARY     89   LAYER   1   ROW     6   COL    14   RATE     0.00000    
 BOUNDARY     90   LAYER   1   ROW     6   COL    15   RATE     0.00000    
 BOUNDARY     91   LAYER   1   ROW     7   COL     1   RATE     0.00000    
 BOUNDARY     92   LAYER   1   ROW     7   COL     2   RATE    -4.73376    
 BOUNDARY     93   LAYER   1   ROW     7   COL     3   RATE   -100.0000    
 BOUNDARY     94   LAYER   1   ROW     7   COL     4   RATE   -100.0000    
 BOUNDARY     95   LAYER   1   ROW     7   COL     5   RATE   -100.0000    
 BOUNDARY     96   LAYER   1   ROW     7   COL     6   RATE   -100.0000    
 BOUNDARY     97   LAYER   1   ROW     7   COL     7   RATE   -100.0000    
 BOUNDARY     98   LAYER   1   ROW     7   COL     8   RATE   -100.0000    
 BOUNDARY     99   LAYER   1   ROW     7   COL     9   RATE   -100.0000    
 BOUNDARY    100   LAYER   1   ROW     7   COL    10   RATE   -100.0000    
 BOUNDARY    101   LAYER   1   ROW     7   COL    11   RATE   -100.0000    
 BOUNDARY    102   LAYER   1   ROW     7   COL    12   RATE    -88.0918    
 BOUNDARY    103   LAYER   1   ROW     7   COL    13   RATE    -7.57734    
 BOUNDARY    104   LAYER   1   ROW     7   COL    14   RATE     0.00000    
 BOUNDARY    105   LAYER   1   ROW     7   COL    15   RATE     0.00000    
 BOUNDARY    106   LAYER   1   ROW     8   COL     1   RATE    -1.98541    
 BOUNDARY    107   LAYER   1   ROW     8   COL     2   RATE    -24.9259    
 BOUNDARY    108   LAYER   1   ROW     8   COL     3   RATE   -100.0000    
 BOUNDARY    109   LAYER   1   ROW     8   COL     4   RATE   -100.0000    
 BOUNDARY    110   LAYER   1   ROW     8   COL     5   RATE   -100.0000    
 BOUNDARY    111   LAYER   1   ROW     8   COL     6   RATE   -100.0000    
 BOUNDARY    112   LAYER   1   ROW     8   COL     7   RATE   -100.0000    
 BOUNDARY    113   LAYER   1   ROW     8   COL     8   RATE   -100.0000    
 BOUNDARY    114   LAYER   1   ROW     8   COL     9   RATE   -100.0000    
 BOUNDARY    115   LAYER   1   ROW     8   COL    10   RATE   -100.0000    
 BOUNDARY    116   LAYER   1   ROW     8   COL    11   RATE   -100.0000    
 BOUNDARY    117   LAYER   1   ROW     8   COL    12   RATE    -90.5482    
 BOUNDARY    118   LAYER   1   ROW     8   COL    13   RATE    -7.63864    
 BOUNDARY    119   LAYER   1   ROW     8   COL    14   RATE     0.00000    
 BOUNDARY    120   LAYER   1   ROW     8   COL    15   RATE     0.00000    
 BOUNDARY    121   LAYER   1   ROW     9   COL     1   RATE    -44.3112    
 BOUNDARY    122   LAYER   1   ROW     9   COL     2   RATE   -100.0000    
 BOUNDARY    123   LAYER   1   ROW     9   COL     3   RATE   -100.0000    
 BOUNDARY    124   LAYER   1   ROW     9   COL     4   RATE   -100.0000    
 BOUNDARY    125   LAYER   1   ROW     9   COL     5   RATE   -100.0000    
 BOUNDARY    126   LAYER   1   ROW     9   COL     6   RATE   -100.0000    
 BOUNDARY    127   LAYER   1   ROW     9   COL     7   RATE   -100.0000    
 BOUNDARY    128   LAYER   1   ROW     9   COL     8   RATE   -100.0000    
 BOUNDARY    129   LAYER   1   ROW     9   COL     9   RATE   -100.0000    
 BOUNDARY    130   LAYER   1   ROW     9   COL    10   RATE   -100.0000    
 BOUNDARY    131   LAYER   1   ROW     9   COL    11   RATE   -100.0000    
 BOUNDARY    132   LAYER   1   ROW     9   COL    12   RATE    -96.6854    
 BOUNDARY    133   LAYER   1   ROW     9   COL    13   RATE    -8.51873    
 BOUNDARY    134   LAYER   1   ROW     9   COL    14   RATE     0.00000    
 BOUNDARY    135   LAYER   1   ROW     9   COL    15   RATE     0.00000    
 BOUNDARY    136   LAYER   1   ROW    10   COL     1   RATE   -100.0000    
 BOUNDARY    137   LAYER   1   ROW    10   COL     2   RATE   -100.0000    
 BOUNDARY    138   LAYER   1   ROW    10   COL     3   RATE   -100.0000    
 BOUNDARY    139   LAYER   1   ROW    10   COL     4   RATE   -100.0000    
 BOUNDARY    140   LAYER   1   ROW    10   COL     5   RATE   -100.0000    
 BOUNDARY    141   LAYER   1   ROW    10   COL     6   RATE   -100.0000    
 BOUNDARY    142   LAYER   1   ROW    10   COL     7   RATE   -100.0000    
 BOUNDARY    143   LAYER   1   ROW    10   COL     8   RATE   -100.0000    
 BOUNDARY    144   LAYER   1   ROW    10   COL     9   RATE   -100.0000    
 BOUNDARY    145   LAYER   1   ROW    10   COL    10   RATE   -100.0000    
 BOUNDARY    146   LAYER   1   ROW    10   COL    11   RATE   -100.0000    
 BOUNDARY    147   LAYER   1   ROW    10   COL    12   RATE   -100.0000    
 BOUNDARY    148   LAYER   1   ROW    10   COL    13   RATE    -9.08052    
 BOUNDARY    149   LAYER   1   ROW    10   COL    14   RATE     0.00000    
 BOUNDARY    150   LAYER   1   ROW    10   COL    15   RATE     0.00000    
1
  HEAD             IN LAYER   1 AT END OF TIME STEP  92 IN STRESS PERIOD    7
  ---------------------------------------------------------------------------

           1       2       3       4       5       6       7       8       9      10      11      12      13      14      15
 ...........................................................................................................................
   1   133.17  136.65  140.72  144.29  147.00  148.75  149.55  149.40  148.27  146.13  142.86  138.24  131.65  121.95  106.29
   2   127.63  134.31  139.88  144.02  146.92  148.75  149.58  149.44  148.34  146.22  143.00  138.49  132.14  122.85  107.41
   3   110.47  130.71  138.97  143.77  146.88  148.79  149.65  149.53  148.45  146.38  143.25  138.92  133.02  124.97  114.17
   4   126.34  133.53  139.56  143.96  147.01  148.91  149.79  149.67  148.59  146.56  143.50  139.31  133.73  126.21  115.63
   5   130.27  135.07  140.16  144.29  147.25  149.15  150.29  149.93  148.77  146.74  143.71  139.59  134.16  127.02  117.87
   6   127.02  134.27  140.25  144.58  147.57  149.53  150.80  150.56  149.03  146.90  143.84  139.68  134.13  126.70  117.22
   7   112.01  132.37  140.43  145.06  148.05  150.34  151.36  151.01  149.30  147.05  143.93  139.66  133.79  125.16  110.58
   8   130.99  137.24  142.32  146.03  148.74  150.94  151.81  151.36  149.54  147.20  144.04  139.73  133.82  125.11  110.43
   9   138.41  141.03  144.18  147.02  149.38  151.40  152.15  151.61  149.73  147.33  144.15  139.91  134.26  126.53  116.16
  10   141.27  142.90  145.24  147.61  149.75  151.65  152.33  151.74  149.83  147.40  144.23  140.03  134.54  127.15  117.06
1
  HEAD             IN LAYER   2 AT END OF TIME STEP  92 IN STRESS PERIOD    7
  ---------------------------------------------------------------------------

           1       2       3       4       5       6       7       8       9      10      11      12      13      14      15
 ...........................................................................................................................
   1   134.03  136.35  139.57  142.69  145.21  146.89  147.66  147.48  146.31  144.11  140.84  136.44  130.92  124.66  119.12
   2   132.16  135.31  139.11  142.52  145.16  146.91  147.70  147.53  146.38  144.21  140.98  136.67  131.32  125.30  120.01
   3   129.43  134.14  138.68  142.40  145.17  146.97  147.79  147.64  146.50  144.37  141.22  137.06  131.98  126.45  121.91
   4   131.48  134.87  138.94  142.55  145.31  147.12  147.96  147.81  146.67  144.57  141.48  137.44  132.58  127.37  123.14
   5   132.73  135.60  139.37  142.86  145.58  147.39  148.25  148.06  146.89  144.77  141.71  137.72  132.96  127.92  123.91
   6   132.36  135.72  139.72  143.25  145.95  147.76  148.62  148.40  147.14  144.97  141.88  137.86  133.05  127.87  123.70
   7   131.33  135.94  140.29  143.81  146.46  148.24  149.03  148.74  147.39  145.15  142.01  137.92  132.96  127.42  122.56
   8   135.35  138.22  141.62  144.67  147.07  148.73  149.42  149.04  147.61  145.31  142.13  138.02  133.03  127.45  122.54
   9   138.70  140.48  143.00  145.51  147.63  149.13  149.72  149.27  147.79  145.45  142.25  138.17  133.29  128.01  123.67
  10   140.43  141.76  143.82  146.02  147.96  149.36  149.89  149.39  147.88  145.52  142.33  138.28  133.48  128.37  124.22

 HEAD WILL BE SAVED ON UNIT 1017 AT END OF TIME STEP   92, STRESS PERIOD    7
1
  VOLUME BUDGET FOR ENTIRE MODEL AT END OF TIME STEP   92, STRESS PERIOD   7
  ------------------------------------------------------------------------------

     CUMULATIVE VOLUME      L**3       RATES FOR THIS TIME STEP      L**3/T
     ------------------                 ------------------------

           IN:                                      IN:
           ---                                      ---
             STORAGE =       55325.0854               STORAGE =         181.4119
    WELLS NEAR RIVER =           0.0000      WELLS NEAR RIVER =           0.0000
               RIVER =           0.0000                 RIVER =           0.0000
           GHB LAKES =           0.0000             GHB LAKES =           0.0000
            RECHARGE =    27447500.0000              RECHARGE =      111406.2500
             ET SEGS =           0.0000               ET SEGS =           0.0000

            TOTAL IN =    27502825.0854              TOTAL IN =      111587.6619

          OUT:                                     OUT:
          ----                                     ----
             STORAGE =     8018602.8046               STORAGE =       26366.4749
    WELLS NEAR RIVER =        5570.0000      WELLS NEAR RIVER =           0.0000
               RIVER =     9684947.2071                 RIVER =       42847.2813
           GHB LAKES =     7475148.0267             GHB LAKES =       32146.0286
            RECHARGE =           0.0000              RECHARGE =           0.0000
             ET SEGS =     2318557.0557               ET SEGS =       10227.8774

           TOTAL OUT =    27502825.0940             TOTAL OUT =      111587.6622

            IN - OUT =      -8.6465E-03              IN - OUT =      -2.6732E-04

 PERCENT DISCREPANCY =          -0.00     PERCENT DISCREPANCY =          -0.00






         TIME SUMMARY AT END OF TIME STEP   92 IN STRESS PERIOD    7
                    SECONDS     MINUTES      HOURS       DAYS        YEARS
                    -----------------------------------------------------------
   TIME STEP LENGTH  86400.      1440.0      24.000     1.00000     2.73785E-03
 STRESS PERIOD TIME 7.94880E+06 1.32480E+05  2208.0      92.000     0.25188    
         TOTAL TIME 2.10816E+07 3.51360E+05  5856.0      244.00     0.66804    
RIV   no.    1 value from time series:   101.00     for time:  244.0     to  245.0    
RIV   no.    2 value from time series:   101.00     for time:  244.0     to  245.0    
RIV   no.    3 value from time series:   111.50     for time:  244.0     to  245.0    
RIV   no.    4 value from time series:   111.50     for time:  244.0     to  245.0    
RIV   no.    5 value from time series:   115.10     for time:  244.0     to  245.0    
RIV   no.    6 value from time series:   115.10     for time:  244.0     to  245.0    
RIV   no.    7 value from time series:   104.00     for time:  244.0     to  245.0    
RIV   no.    8 value from time series:   104.00     for time:  244.0     to  245.0    
RIV   no.    9 value from time series:   113.50     for time:  244.0     to  245.0    
RIV   no.   10 value from time series:   113.50     for time:  244.0     to  245.0    
RIV   no.    1 value from time series:   101.00     for time:  244.0     to  245.0    
RIV   no.    2 value from time series:   101.00     for time:  244.0     to  245.0    
RIV   no.    3 value from time series:   111.50     for time:  244.0     to  245.0    
RIV   no.    4 value from time series:   111.50     for time:  244.0     to  245.0    
RIV   no.    5 value from time series:   115.10     for time:  244.0     to  245.0    
RIV   no.    6 value from time series:   115.10     for time:  244.0     to  245.0    
RIV   no.    7 value from time series:   104.00     for time:  244.0     to  245.0    
RIV   no.    8 value from time series:   104.00     for time:  244.0     to  245.0    
RIV   no.    9 value from time series:   113.50     for time:  244.0     to  245.0    
RIV   no.   10 value from time series:   113.50     for time:  244.0     to  245.0    

 NO OUTPUT CONTROL FOR STRESS PERIOD    7   TIME STEP   93
RIV   no.    1 value from time series:   101.00     for time:  245.0     to  246.0    
RIV   no.    2 value from time series:   101.00     for time:  245.0     to  246.0    
RIV   no.    3 value from time series:   111.50     for time:  245.0     to  246.0    
RIV   no.    4 value from time series:   111.50     for time:  245.0     to  246.0    
RIV   no.    5 value from time series:   115.10     for time:  245.0     to  246.0    
RIV   no.    6 value from time series:   115.10     for time:  245.0     to  246.0    
RIV   no.    7 value from time series:   104.00     for time:  245.0     to  246.0    
RIV   no.    8 value from time series:   104.00     for time:  245.0     to  246.0    
RIV   no.    9 value from time series:   113.50     for time:  245.0     to  246.0    
RIV   no.   10 value from time series:   113.50     for time:  245.0     to  246.0    
RIV   no.    1 value from time series:   101.00     for time:  245.0     to  246.0    
RIV   no.    2 value from time series:   101.00     for time:  245.0     to  246.0    
RIV   no.    3 value from time series:   111.50     for time:  245.0     to  246.0    
RIV   no.    4 value from time series:   111.50     for time:  245.0     to  246.0    
RIV   no.    5 value from time series:   115.10     for time:  245.0     to  246.0    
RIV   no.    6 value from time series:   115.10     for time:  245.0     to  246.0    
RIV   no.    7 value from time series:   104.00     for time:  245.0     to  246.0    
RIV   no.    8 value from time series:   104.00     for time:  245.0     to  246.0    
RIV   no.    9 value from time series:   113.50     for time:  245.0     to  246.0    
RIV   no.   10 value from time series:   113.50     for time:  245.0     to  246.0    

 NO OUTPUT CONTROL FOR STRESS PERIOD    7   TIME STEP   94
RIV   no.    1 value from time series:   101.00     for time:  246.0     to  247.0    
RIV   no.    2 value from time series:   101.00     for time:  246.0     to  247.0    
RIV   no.    3 value from time series:   111.50     for time:  246.0     to  247.0    
RIV   no.    4 value from time series:   111.50     for time:  246.0     to  247.0    
RIV   no.    5 value from time series:   115.10     for time:  246.0     to  247.0    
RIV   no.    6 value from time series:   115.10     for time:  246.0     to  247.0    
RIV   no.    7 value from time series:   104.00     for time:  246.0     to  247.0    
RIV   no.    8 value from time series:   104.00     for time:  246.0     to  247.0    
RIV   no.    9 value from time series:   113.50     for time:  246.0     to  247.0    
RIV   no.   10 value from time series:   113.50     for time:  246.0     to  247.0    
RIV   no.    1 value from time series:   101.00     for time:  246.0     to  247.0    
RIV   no.    2 value from time series:   101.00     for time:  246.0     to  247.0    
RIV   no.    3 value from time series:   111.50     for time:  246.0     to  247.0    
RIV   no.    4 value from time series:   111.50     for time:  246.0     to  247.0    
RIV   no.    5 value from time series:   115.10     for time:  246.0     to  247.0    
RIV   no.    6 value from time series:   115.10     for time:  246.0     to  247.0    
RIV   no.    7 value from time series:   104.00     for time:  246.0     to  247.0    
RIV   no.    8 value from time series:   104.00     for time:  246.0     to  247.0    
RIV   no.    9 value from time series:   113.50     for time:  246.0     to  247.0    
RIV   no.   10 value from time series:   113.50     for time:  246.0     to  247.0    

 NO OUTPUT CONTROL FOR STRESS PERIOD    7   TIME STEP   95
RIV   no.    1 value from time series:   101.00     for time:  247.0     to  248.0    
RIV   no.    2 value from time series:   101.00     for time:  247.0     to  248.0    
RIV   no.    3 value from time series:   111.50     for time:  247.0     to  248.0    
RIV   no.    4 value from time series:   111.50     for time:  247.0     to  248.0    
RIV   no.    5 value from time series:   115.10     for time:  247.0     to  248.0    
RIV   no.    6 value from time series:   115.10     for time:  247.0     to  248.0    
RIV   no.    7 value from time series:   104.00     for time:  247.0     to  248.0    
RIV   no.    8 value from time series:   104.00     for time:  247.0     to  248.0    
RIV   no.    9 value from time series:   113.50     for time:  247.0     to  248.0    
RIV   no.   10 value from time series:   113.50     for time:  247.0     to  248.0    
RIV   no.    1 value from time series:   101.00     for time:  247.0     to  248.0    
RIV   no.    2 value from time series:   101.00     for time:  247.0     to  248.0    
RIV   no.    3 value from time series:   111.50     for time:  247.0     to  248.0    
RIV   no.    4 value from time series:   111.50     for time:  247.0     to  248.0    
RIV   no.    5 value from time series:   115.10     for time:  247.0     to  248.0    
RIV   no.    6 value from time series:   115.10     for time:  247.0     to  248.0    
RIV   no.    7 value from time series:   104.00     for time:  247.0     to  248.0    
RIV   no.    8 value from time series:   104.00     for time:  247.0     to  248.0    
RIV   no.    9 value from time series:   113.50     for time:  247.0     to  248.0    
RIV   no.   10 value from time series:   113.50     for time:  247.0     to  248.0    

 NO OUTPUT CONTROL FOR STRESS PERIOD    7   TIME STEP   96
RIV   no.    1 value from time series:   101.00     for time:  248.0     to  249.0    
RIV   no.    2 value from time series:   101.00     for time:  248.0     to  249.0    
RIV   no.    3 value from time series:   111.50     for time:  248.0     to  249.0    
RIV   no.    4 value from time series:   111.50     for time:  248.0     to  249.0    
RIV   no.    5 value from time series:   115.10     for time:  248.0     to  249.0    
RIV   no.    6 value from time series:   115.10     for time:  248.0     to  249.0    
RIV   no.    7 value from time series:   104.00     for time:  248.0     to  249.0    
RIV   no.    8 value from time series:   104.00     for time:  248.0     to  249.0    
RIV   no.    9 value from time series:   113.50     for time:  248.0     to  249.0    
RIV   no.   10 value from time series:   113.50     for time:  248.0     to  249.0    
RIV   no.    1 value from time series:   101.00     for time:  248.0     to  249.0    
RIV   no.    2 value from time series:   101.00     for time:  248.0     to  249.0    
RIV   no.    3 value from time series:   111.50     for time:  248.0     to  249.0    
RIV   no.    4 value from time series:   111.50     for time:  248.0     to  249.0    
RIV   no.    5 value from time series:   115.10     for time:  248.0     to  249.0    
RIV   no.    6 value from time series:   115.10     for time:  248.0     to  249.0    
RIV   no.    7 value from time series:   104.00     for time:  248.0     to  249.0    
RIV   no.    8 value from time series:   104.00     for time:  248.0     to  249.0    
RIV   no.    9 value from time series:   113.50     for time:  248.0     to  249.0    
RIV   no.   10 value from time series:   113.50     for time:  248.0     to  249.0    

 NO OUTPUT CONTROL FOR STRESS PERIOD    7   TIME STEP   97
RIV   no.    1 value from time series:   101.00     for time:  249.0     to  250.0    
RIV   no.    2 value from time series:   101.00     for time:  249.0     to  250.0    
RIV   no.    3 value from time series:   111.50     for time:  249.0     to  250.0    
RIV   no.    4 value from time series:   111.50     for time:  249.0     to  250.0    
RIV   no.    5 value from time series:   115.10     for time:  249.0     to  250.0    
RIV   no.    6 value from time series:   115.10     for time:  249.0     to  250.0    
RIV   no.    7 value from time series:   104.00     for time:  249.0     to  250.0    
RIV   no.    8 value from time series:   104.00     for time:  249.0     to  250.0    
RIV   no.    9 value from time series:   113.50     for time:  249.0     to  250.0    
RIV   no.   10 value from time series:   113.50     for time:  249.0     to  250.0    
RIV   no.    1 value from time series:   101.00     for time:  249.0     to  250.0    
RIV   no.    2 value from time series:   101.00     for time:  249.0     to  250.0    
RIV   no.    3 value from time series:   111.50     for time:  249.0     to  250.0    
RIV   no.    4 value from time series:   111.50     for time:  249.0     to  250.0    
RIV   no.    5 value from time series:   115.10     for time:  249.0     to  250.0    
RIV   no.    6 value from time series:   115.10     for time:  249.0     to  250.0    
RIV   no.    7 value from time series:   104.00     for time:  249.0     to  250.0    
RIV   no.    8 value from time series:   104.00     for time:  249.0     to  250.0    
RIV   no.    9 value from time series:   113.50     for time:  249.0     to  250.0    
RIV   no.   10 value from time series:   113.50     for time:  249.0     to  250.0    

 NO OUTPUT CONTROL FOR STRESS PERIOD    7   TIME STEP   98
RIV   no.    1 value from time series:   101.00     for time:  250.0     to  251.0    
RIV   no.    2 value from time series:   101.00     for time:  250.0     to  251.0    
RIV   no.    3 value from time series:   111.50     for time:  250.0     to  251.0    
RIV   no.    4 value from time series:   111.50     for time:  250.0     to  251.0    
RIV   no.    5 value from time series:   115.10     for time:  250.0     to  251.0    
RIV   no.    6 value from time series:   115.10     for time:  250.0     to  251.0    
RIV   no.    7 value from time series:   104.00     for time:  250.0     to  251.0    
RIV   no.    8 value from time series:   104.00     for time:  250.0     to  251.0    
RIV   no.    9 value from time series:   113.50     for time:  250.0     to  251.0    
RIV   no.   10 value from time series:   113.50     for time:  250.0     to  251.0    
RIV   no.    1 value from time series:   101.00     for time:  250.0     to  251.0    
RIV   no.    2 value from time series:   101.00     for time:  250.0     to  251.0    
RIV   no.    3 value from time series:   111.50     for time:  250.0     to  251.0    
RIV   no.    4 value from time series:   111.50     for time:  250.0     to  251.0    
RIV   no.    5 value from time series:   115.10     for time:  250.0     to  251.0    
RIV   no.    6 value from time series:   115.10     for time:  250.0     to  251.0    
RIV   no.    7 value from time series:   104.00     for time:  250.0     to  251.0    
RIV   no.    8 value from time series:   104.00     for time:  250.0     to  251.0    
RIV   no.    9 value from time series:   113.50     for time:  250.0     to  251.0    
RIV   no.   10 value from time series:   113.50     for time:  250.0     to  251.0    

 NO OUTPUT CONTROL FOR STRESS PERIOD    7   TIME STEP   99
RIV   no.    1 value from time series:   101.00     for time:  251.0     to  252.0    
RIV   no.    2 value from time series:   101.00     for time:  251.0     to  252.0    
RIV   no.    3 value from time series:   111.50     for time:  251.0     to  252.0    
RIV   no.    4 value from time series:   111.50     for time:  251.0     to  252.0    
RIV   no.    5 value from time series:   115.10     for time:  251.0     to  252.0    
RIV   no.    6 value from time series:   115.10     for time:  251.0     to  252.0    
RIV   no.    7 value from time series:   104.00     for time:  251.0     to  252.0    
RIV   no.    8 value from time series:   104.00     for time:  251.0     to  252.0    
RIV   no.    9 value from time series:   113.50     for time:  251.0     to  252.0    
RIV   no.   10 value from time series:   113.50     for time:  251.0     to  252.0    
RIV   no.    1 value from time series:   101.00     for time:  251.0     to  252.0    
RIV   no.    2 value from time series:   101.00     for time:  251.0     to  252.0    
RIV   no.    3 value from time series:   111.50     for time:  251.0     to  252.0    
RIV   no.    4 value from time series:   111.50     for time:  251.0     to  252.0    
RIV   no.    5 value from time series:   115.10     for time:  251.0     to  252.0    
RIV   no.    6 value from time series:   115.10     for time:  251.0     to  252.0    
RIV   no.    7 value from time series:   104.00     for time:  251.0     to  252.0    
RIV   no.    8 value from time series:   104.00     for time:  251.0     to  252.0    
RIV   no.    9 value from time series:   113.50     for time:  251.0     to  252.0    
RIV   no.   10 value from time series:   113.50     for time:  251.0     to  252.0    

 NO OUTPUT CONTROL FOR STRESS PERIOD    7   TIME STEP  100
RIV   no.    1 value from time series:   101.00     for time:  252.0     to  253.0    
RIV   no.    2 value from time series:   101.00     for time:  252.0     to  253.0    
RIV   no.    3 value from time series:   111.50     for time:  252.0     to  253.0    
RIV   no.    4 value from time series:   111.50     for time:  252.0     to  253.0    
RIV   no.    5 value from time series:   115.10     for time:  252.0     to  253.0    
RIV   no.    6 value from time series:   115.10     for time:  252.0     to  253.0    
RIV   no.    7 value from time series:   104.00     for time:  252.0     to  253.0    
RIV   no.    8 value from time series:   104.00     for time:  252.0     to  253.0    
RIV   no.    9 value from time series:   113.50     for time:  252.0     to  253.0    
RIV   no.   10 value from time series:   113.50     for time:  252.0     to  253.0    
RIV   no.    1 value from time series:   101.00     for time:  252.0     to  253.0    
RIV   no.    2 value from time series:   101.00     for time:  252.0     to  253.0    
RIV   no.    3 value from time series:   111.50     for time:  252.0     to  253.0    
RIV   no.    4 value from time series:   111.50     for time:  252.0     to  253.0    
RIV   no.    5 value from time series:   115.10     for time:  252.0     to  253.0    
RIV   no.    6 value from time series:   115.10     for time:  252.0     to  253.0    
RIV   no.    7 value from time series:   104.00     for time:  252.0     to  253.0    
RIV   no.    8 value from time series:   104.00     for time:  252.0     to  253.0    
RIV   no.    9 value from time series:   113.50     for time:  252.0     to  253.0    
RIV   no.   10 value from time series:   113.50     for time:  252.0     to  253.0    

 NO OUTPUT CONTROL FOR STRESS PERIOD    7   TIME STEP  101
RIV   no.    1 value from time series:   101.00     for time:  253.0     to  254.0    
RIV   no.    2 value from time series:   101.00     for time:  253.0     to  254.0    
RIV   no.    3 value from time series:   111.50     for time:  253.0     to  254.0    
RIV   no.    4 value from time series:   111.50     for time:  253.0     to  254.0    
RIV   no.    5 value from time series:   115.10     for time:  253.0     to  254.0    
RIV   no.    6 value from time series:   115.10     for time:  253.0     to  254.0    
RIV   no.    7 value from time series:   104.00     for time:  253.0     to  254.0    
RIV   no.    8 value from time series:   104.00     for time:  253.0     to  254.0    
RIV   no.    9 value from time series:   113.50     for time:  253.0     to  254.0    
RIV   no.   10 value from time series:   113.50     for time:  253.0     to  254.0    
RIV   no.    1 value from time series:   101.00     for time:  253.0     to  254.0    
RIV   no.    2 value from time series:   101.00     for time:  253.0     to  254.0    
RIV   no.    3 value from time series:   111.50     for time:  253.0     to  254.0    
RIV   no.    4 value from time series:   111.50     for time:  253.0     to  254.0    
RIV   no.    5 value from time series:   115.10     for time:  253.0     to  254.0    
RIV   no.    6 value from time series:   115.10     for time:  253.0     to  254.0    
RIV   no.    7 value from time series:   104.00     for time:  253.0     to  254.0    
RIV   no.    8 value from time series:   104.00     for time:  253.0     to  254.0    
RIV   no.    9 value from time series:   113.50     for time:  253.0     to  254.0    
RIV   no.   10 value from time series:   113.50     for time:  253.0     to  254.0    

 NO OUTPUT CONTROL FOR STRESS PERIOD    7   TIME STEP  102
RIV   no.    1 value from time series:   101.00     for time:  254.0     to  255.0    
RIV   no.    2 value from time series:   101.00     for time:  254.0     to  255.0    
RIV   no.    3 value from time series:   111.50     for time:  254.0     to  255.0    
RIV   no.    4 value from time series:   111.50     for time:  254.0     to  255.0    
RIV   no.    5 value from time series:   115.10     for time:  254.0     to  255.0    
RIV   no.    6 value from time series:   115.10     for time:  254.0     to  255.0    
RIV   no.    7 value from time series:   104.00     for time:  254.0     to  255.0    
RIV   no.    8 value from time series:   104.00     for time:  254.0     to  255.0    
RIV   no.    9 value from time series:   113.50     for time:  254.0     to  255.0    
RIV   no.   10 value from time series:   113.50     for time:  254.0     to  255.0    
RIV   no.    1 value from time series:   101.00     for time:  254.0     to  255.0    
RIV   no.    2 value from time series:   101.00     for time:  254.0     to  255.0    
RIV   no.    3 value from time series:   111.50     for time:  254.0     to  255.0    
RIV   no.    4 value from time series:   111.50     for time:  254.0     to  255.0    
RIV   no.    5 value from time series:   115.10     for time:  254.0     to  255.0    
RIV   no.    6 value from time series:   115.10     for time:  254.0     to  255.0    
RIV   no.    7 value from time series:   104.00     for time:  254.0     to  255.0    
RIV   no.    8 value from time series:   104.00     for time:  254.0     to  255.0    
RIV   no.    9 value from time series:   113.50     for time:  254.0     to  255.0    
RIV   no.   10 value from time series:   113.50     for time:  254.0     to  255.0    

 NO OUTPUT CONTROL FOR STRESS PERIOD    7   TIME STEP  103
RIV   no.    1 value from time series:   101.00     for time:  255.0     to  256.0    
RIV   no.    2 value from time series:   101.00     for time:  255.0     to  256.0    
RIV   no.    3 value from time series:   111.50     for time:  255.0     to  256.0    
RIV   no.    4 value from time series:   111.50     for time:  255.0     to  256.0    
RIV   no.    5 value from time series:   115.10     for time:  255.0     to  256.0    
RIV   no.    6 value from time series:   115.10     for time:  255.0     to  256.0    
RIV   no.    7 value from time series:   104.00     for time:  255.0     to  256.0    
RIV   no.    8 value from time series:   104.00     for time:  255.0     to  256.0    
RIV   no.    9 value from time series:   113.50     for time:  255.0     to  256.0    
RIV   no.   10 value from time series:   113.50     for time:  255.0     to  256.0    
RIV   no.    1 value from time series:   101.00     for time:  255.0     to  256.0    
RIV   no.    2 value from time series:   101.00     for time:  255.0     to  256.0    
RIV   no.    3 value from time series:   111.50     for time:  255.0     to  256.0    
RIV   no.    4 value from time series:   111.50     for time:  255.0     to  256.0    
RIV   no.    5 value from time series:   115.10     for time:  255.0     to  256.0    
RIV   no.    6 value from time series:   115.10     for time:  255.0     to  256.0    
RIV   no.    7 value from time series:   104.00     for time:  255.0     to  256.0    
RIV   no.    8 value from time series:   104.00     for time:  255.0     to  256.0    
RIV   no.    9 value from time series:   113.50     for time:  255.0     to  256.0    
RIV   no.   10 value from time series:   113.50     for time:  255.0     to  256.0    

 NO OUTPUT CONTROL FOR STRESS PERIOD    7   TIME STEP  104
RIV   no.    1 value from time series:   101.00     for time:  256.0     to  257.0    
RIV   no.    2 value from time series:   101.00     for time:  256.0     to  257.0    
RIV   no.    3 value from time series:   111.50     for time:  256.0     to  257.0    
RIV   no.    4 value from time series:   111.50     for time:  256.0     to  257.0    
RIV   no.    5 value from time series:   115.10     for time:  256.0     to  257.0    
RIV   no.    6 value from time series:   115.10     for time:  256.0     to  257.0    
RIV   no.    7 value from time series:   104.00     for time:  256.0     to  257.0    
RIV   no.    8 value from time series:   104.00     for time:  256.0     to  257.0    
RIV   no.    9 value from time series:   113.50     for time:  256.0     to  257.0    
RIV   no.   10 value from time series:   113.50     for time:  256.0     to  257.0    
RIV   no.    1 value from time series:   101.00     for time:  256.0     to  257.0    
RIV   no.    2 value from time series:   101.00     for time:  256.0     to  257.0    
RIV   no.    3 value from time series:   111.50     for time:  256.0     to  257.0    
RIV   no.    4 value from time series:   111.50     for time:  256.0     to  257.0    
RIV   no.    5 value from time series:   115.10     for time:  256.0     to  257.0    
RIV   no.    6 value from time series:   115.10     for time:  256.0     to  257.0    
RIV   no.    7 value from time series:   104.00     for time:  256.0     to  257.0    
RIV   no.    8 value from time series:   104.00     for time:  256.0     to  257.0    
RIV   no.    9 value from time series:   113.50     for time:  256.0     to  257.0    
RIV   no.   10 value from time series:   113.50     for time:  256.0     to  257.0    

 NO OUTPUT CONTROL FOR STRESS PERIOD    7   TIME STEP  105
RIV   no.    1 value from time series:   101.00     for time:  257.0     to  258.0    
RIV   no.    2 value from time series:   101.00     for time:  257.0     to  258.0    
RIV   no.    3 value from time series:   111.50     for time:  257.0     to  258.0    
RIV   no.    4 value from time series:   111.50     for time:  257.0     to  258.0    
RIV   no.    5 value from time series:   115.10     for time:  257.0     to  258.0    
RIV   no.    6 value from time series:   115.10     for time:  257.0     to  258.0    
RIV   no.    7 value from time series:   104.00     for time:  257.0     to  258.0    
RIV   no.    8 value from time series:   104.00     for time:  257.0     to  258.0    
RIV   no.    9 value from time series:   113.50     for time:  257.0     to  258.0    
RIV   no.   10 value from time series:   113.50     for time:  257.0     to  258.0    
RIV   no.    1 value from time series:   101.00     for time:  257.0     to  258.0    
RIV   no.    2 value from time series:   101.00     for time:  257.0     to  258.0    
RIV   no.    3 value from time series:   111.50     for time:  257.0     to  258.0    
RIV   no.    4 value from time series:   111.50     for time:  257.0     to  258.0    
RIV   no.    5 value from time series:   115.10     for time:  257.0     to  258.0    
RIV   no.    6 value from time series:   115.10     for time:  257.0     to  258.0    
RIV   no.    7 value from time series:   104.00     for time:  257.0     to  258.0    
RIV   no.    8 value from time series:   104.00     for time:  257.0     to  258.0    
RIV   no.    9 value from time series:   113.50     for time:  257.0     to  258.0    
RIV   no.   10 value from time series:   113.50     for time:  257.0     to  258.0    

 NO OUTPUT CONTROL FOR STRESS PERIOD    7   TIME STEP  106
RIV   no.    1 value from time series:   101.00     for time:  258.0     to  259.0    
RIV   no.    2 value from time series:   101.00     for time:  258.0     to  259.0    
RIV   no.    3 value from time series:   111.50     for time:  258.0     to  259.0    
RIV   no.    4 value from time series:   111.50     for time:  258.0     to  259.0    
RIV   no.    5 value from time series:   115.10     for time:  258.0     to  259.0    
RIV   no.    6 value from time series:   115.10     for time:  258.0     to  259.0    
RIV   no.    7 value from time series:   104.00     for time:  258.0     to  259.0    
RIV   no.    8 value from time series:   104.00     for time:  258.0     to  259.0    
RIV   no.    9 value from time series:   113.50     for time:  258.0     to  259.0    
RIV   no.   10 value from time series:   113.50     for time:  258.0     to  259.0    
RIV   no.    1 value from time series:   101.00     for time:  258.0     to  259.0    
RIV   no.    2 value from time series:   101.00     for time:  258.0     to  259.0    
RIV   no.    3 value from time series:   111.50     for time:  258.0     to  259.0    
RIV   no.    4 value from time series:   111.50     for time:  258.0     to  259.0    
RIV   no.    5 value from time series:   115.10     for time:  258.0     to  259.0    
RIV   no.    6 value from time series:   115.10     for time:  258.0     to  259.0    
RIV   no.    7 value from time series:   104.00     for time:  258.0     to  259.0    
RIV   no.    8 value from time series:   104.00     for time:  258.0     to  259.0    
RIV   no.    9 value from time series:   113.50     for time:  258.0     to  259.0    
RIV   no.   10 value from time series:   113.50     for time:  258.0     to  259.0    

 NO OUTPUT CONTROL FOR STRESS PERIOD    7   TIME STEP  107
RIV   no.    1 value from time series:   101.00     for time:  259.0     to  260.0    
RIV   no.    2 value from time series:   101.00     for time:  259.0     to  260.0    
RIV   no.    3 value from time series:   111.50     for time:  259.0     to  260.0    
RIV   no.    4 value from time series:   111.50     for time:  259.0     to  260.0    
RIV   no.    5 value from time series:   115.10     for time:  259.0     to  260.0    
RIV   no.    6 value from time series:   115.10     for time:  259.0     to  260.0    
RIV   no.    7 value from time series:   104.00     for time:  259.0     to  260.0    
RIV   no.    8 value from time series:   104.00     for time:  259.0     to  260.0    
RIV   no.    9 value from time series:   113.50     for time:  259.0     to  260.0    
RIV   no.   10 value from time series:   113.50     for time:  259.0     to  260.0    
RIV   no.    1 value from time series:   101.00     for time:  259.0     to  260.0    
RIV   no.    2 value from time series:   101.00     for time:  259.0     to  260.0    
RIV   no.    3 value from time series:   111.50     for time:  259.0     to  260.0    
RIV   no.    4 value from time series:   111.50     for time:  259.0     to  260.0    
RIV   no.    5 value from time series:   115.10     for time:  259.0     to  260.0    
RIV   no.    6 value from time series:   115.10     for time:  259.0     to  260.0    
RIV   no.    7 value from time series:   104.00     for time:  259.0     to  260.0    
RIV   no.    8 value from time series:   104.00     for time:  259.0     to  260.0    
RIV   no.    9 value from time series:   113.50     for time:  259.0     to  260.0    
RIV   no.   10 value from time series:   113.50     for time:  259.0     to  260.0    

 NO OUTPUT CONTROL FOR STRESS PERIOD    7   TIME STEP  108
RIV   no.    1 value from time series:   101.00     for time:  260.0     to  261.0    
RIV   no.    2 value from time series:   101.00     for time:  260.0     to  261.0    
RIV   no.    3 value from time series:   111.50     for time:  260.0     to  261.0    
RIV   no.    4 value from time series:   111.50     for time:  260.0     to  261.0    
RIV   no.    5 value from time series:   115.10     for time:  260.0     to  261.0    
RIV   no.    6 value from time series:   115.10     for time:  260.0     to  261.0    
RIV   no.    7 value from time series:   104.00     for time:  260.0     to  261.0    
RIV   no.    8 value from time series:   104.00     for time:  260.0     to  261.0    
RIV   no.    9 value from time series:   113.50     for time:  260.0     to  261.0    
RIV   no.   10 value from time series:   113.50     for time:  260.0     to  261.0    
RIV   no.    1 value from time series:   101.00     for time:  260.0     to  261.0    
RIV   no.    2 value from time series:   101.00     for time:  260.0     to  261.0    
RIV   no.    3 value from time series:   111.50     for time:  260.0     to  261.0    
RIV   no.    4 value from time series:   111.50     for time:  260.0     to  261.0    
RIV   no.    5 value from time series:   115.10     for time:  260.0     to  261.0    
RIV   no.    6 value from time series:   115.10     for time:  260.0     to  261.0    
RIV   no.    7 value from time series:   104.00     for time:  260.0     to  261.0    
RIV   no.    8 value from time series:   104.00     for time:  260.0     to  261.0    
RIV   no.    9 value from time series:   113.50     for time:  260.0     to  261.0    
RIV   no.   10 value from time series:   113.50     for time:  260.0     to  261.0    

 NO OUTPUT CONTROL FOR STRESS PERIOD    7   TIME STEP  109
RIV   no.    1 value from time series:   101.00     for time:  261.0     to  262.0    
RIV   no.    2 value from time series:   101.00     for time:  261.0     to  262.0    
RIV   no.    3 value from time series:   111.50     for time:  261.0     to  262.0    
RIV   no.    4 value from time series:   111.50     for time:  261.0     to  262.0    
RIV   no.    5 value from time series:   115.10     for time:  261.0     to  262.0    
RIV   no.    6 value from time series:   115.10     for time:  261.0     to  262.0    
RIV   no.    7 value from time series:   104.00     for time:  261.0     to  262.0    
RIV   no.    8 value from time series:   104.00     for time:  261.0     to  262.0    
RIV   no.    9 value from time series:   113.50     for time:  261.0     to  262.0    
RIV   no.   10 value from time series:   113.50     for time:  261.0     to  262.0    
RIV   no.    1 value from time series:   101.00     for time:  261.0     to  262.0    
RIV   no.    2 value from time series:   101.00     for time:  261.0     to  262.0    
RIV   no.    3 value from time series:   111.50     for time:  261.0     to  262.0    
RIV   no.    4 value from time series:   111.50     for time:  261.0     to  262.0    
RIV   no.    5 value from time series:   115.10     for time:  261.0     to  262.0    
RIV   no.    6 value from time series:   115.10     for time:  261.0     to  262.0    
RIV   no.    7 value from time series:   104.00     for time:  261.0     to  262.0    
RIV   no.    8 value from time series:   104.00     for time:  261.0     to  262.0    
RIV   no.    9 value from time series:   113.50     for time:  261.0     to  262.0    
RIV   no.   10 value from time series:   113.50     for time:  261.0     to  262.0    

 NO OUTPUT CONTROL FOR STRESS PERIOD    7   TIME STEP  110
RIV   no.    1 value from time series:   101.00     for time:  262.0     to  263.0    
RIV   no.    2 value from time series:   101.00     for time:  262.0     to  263.0    
RIV   no.    3 value from time series:   111.50     for time:  262.0     to  263.0    
RIV   no.    4 value from time series:   111.50     for time:  262.0     to  263.0    
RIV   no.    5 value from time series:   115.10     for time:  262.0     to  263.0    
RIV   no.    6 value from time series:   115.10     for time:  262.0     to  263.0    
RIV   no.    7 value from time series:   104.00     for time:  262.0     to  263.0    
RIV   no.    8 value from time series:   104.00     for time:  262.0     to  263.0    
RIV   no.    9 value from time series:   113.50     for time:  262.0     to  263.0    
RIV   no.   10 value from time series:   113.50     for time:  262.0     to  263.0    
RIV   no.    1 value from time series:   101.00     for time:  262.0     to  263.0    
RIV   no.    2 value from time series:   101.00     for time:  262.0     to  263.0    
RIV   no.    3 value from time series:   111.50     for time:  262.0     to  263.0    
RIV   no.    4 value from time series:   111.50     for time:  262.0     to  263.0    
RIV   no.    5 value from time series:   115.10     for time:  262.0     to  263.0    
RIV   no.    6 value from time series:   115.10     for time:  262.0     to  263.0    
RIV   no.    7 value from time series:   104.00     for time:  262.0     to  263.0    
RIV   no.    8 value from time series:   104.00     for time:  262.0     to  263.0    
RIV   no.    9 value from time series:   113.50     for time:  262.0     to  263.0    
RIV   no.   10 value from time series:   113.50     for time:  262.0     to  263.0    

 NO OUTPUT CONTROL FOR STRESS PERIOD    7   TIME STEP  111
RIV   no.    1 value from time series:   101.00     for time:  263.0     to  264.0    
RIV   no.    2 value from time series:   101.00     for time:  263.0     to  264.0    
RIV   no.    3 value from time series:   111.50     for time:  263.0     to  264.0    
RIV   no.    4 value from time series:   111.50     for time:  263.0     to  264.0    
RIV   no.    5 value from time series:   115.10     for time:  263.0     to  264.0    
RIV   no.    6 value from time series:   115.10     for time:  263.0     to  264.0    
RIV   no.    7 value from time series:   104.00     for time:  263.0     to  264.0    
RIV   no.    8 value from time series:   104.00     for time:  263.0     to  264.0    
RIV   no.    9 value from time series:   113.50     for time:  263.0     to  264.0    
RIV   no.   10 value from time series:   113.50     for time:  263.0     to  264.0    
RIV   no.    1 value from time series:   101.00     for time:  263.0     to  264.0    
RIV   no.    2 value from time series:   101.00     for time:  263.0     to  264.0    
RIV   no.    3 value from time series:   111.50     for time:  263.0     to  264.0    
RIV   no.    4 value from time series:   111.50     for time:  263.0     to  264.0    
RIV   no.    5 value from time series:   115.10     for time:  263.0     to  264.0    
RIV   no.    6 value from time series:   115.10     for time:  263.0     to  264.0    
RIV   no.    7 value from time series:   104.00     for time:  263.0     to  264.0    
RIV   no.    8 value from time series:   104.00     for time:  263.0     to  264.0    
RIV   no.    9 value from time series:   113.50     for time:  263.0     to  264.0    
RIV   no.   10 value from time series:   113.50     for time:  263.0     to  264.0    

 NO OUTPUT CONTROL FOR STRESS PERIOD    7   TIME STEP  112
RIV   no.    1 value from time series:   101.00     for time:  264.0     to  265.0    
RIV   no.    2 value from time series:   101.00     for time:  264.0     to  265.0    
RIV   no.    3 value from time series:   111.50     for time:  264.0     to  265.0    
RIV   no.    4 value from time series:   111.50     for time:  264.0     to  265.0    
RIV   no.    5 value from time series:   115.10     for time:  264.0     to  265.0    
RIV   no.    6 value from time series:   115.10     for time:  264.0     to  265.0    
RIV   no.    7 value from time series:   104.00     for time:  264.0     to  265.0    
RIV   no.    8 value from time series:   104.00     for time:  264.0     to  265.0    
RIV   no.    9 value from time series:   113.50     for time:  264.0     to  265.0    
RIV   no.   10 value from time series:   113.50     for time:  264.0     to  265.0    
RIV   no.    1 value from time series:   101.00     for time:  264.0     to  265.0    
RIV   no.    2 value from time series:   101.00     for time:  264.0     to  265.0    
RIV   no.    3 value from time series:   111.50     for time:  264.0     to  265.0    
RIV   no.    4 value from time series:   111.50     for time:  264.0     to  265.0    
RIV   no.    5 value from time series:   115.10     for time:  264.0     to  265.0    
RIV   no.    6 value from time series:   115.10     for time:  264.0     to  265.0    
RIV   no.    7 value from time series:   104.00     for time:  264.0     to  265.0    
RIV   no.    8 value from time series:   104.00     for time:  264.0     to  265.0    
RIV   no.    9 value from time series:   113.50     for time:  264.0     to  265.0    
RIV   no.   10 value from time series:   113.50     for time:  264.0     to  265.0    

 NO OUTPUT CONTROL FOR STRESS PERIOD    7   TIME STEP  113
RIV   no.    1 value from time series:   101.00     for time:  265.0     to  266.0    
RIV   no.    2 value from time series:   101.00     for time:  265.0     to  266.0    
RIV   no.    3 value from time series:   111.50     for time:  265.0     to  266.0    
RIV   no.    4 value from time series:   111.50     for time:  265.0     to  266.0    
RIV   no.    5 value from time series:   115.10     for time:  265.0     to  266.0    
RIV   no.    6 value from time series:   115.10     for time:  265.0     to  266.0    
RIV   no.    7 value from time series:   104.00     for time:  265.0     to  266.0    
RIV   no.    8 value from time series:   104.00     for time:  265.0     to  266.0    
RIV   no.    9 value from time series:   113.50     for time:  265.0     to  266.0    
RIV   no.   10 value from time series:   113.50     for time:  265.0     to  266.0    
RIV   no.    1 value from time series:   101.00     for time:  265.0     to  266.0    
RIV   no.    2 value from time series:   101.00     for time:  265.0     to  266.0    
RIV   no.    3 value from time series:   111.50     for time:  265.0     to  266.0    
RIV   no.    4 value from time series:   111.50     for time:  265.0     to  266.0    
RIV   no.    5 value from time series:   115.10     for time:  265.0     to  266.0    
RIV   no.    6 value from time series:   115.10     for time:  265.0     to  266.0    
RIV   no.    7 value from time series:   104.00     for time:  265.0     to  266.0    
RIV   no.    8 value from time series:   104.00     for time:  265.0     to  266.0    
RIV   no.    9 value from time series:   113.50     for time:  265.0     to  266.0    
RIV   no.   10 value from time series:   113.50     for time:  265.0     to  266.0    

 NO OUTPUT CONTROL FOR STRESS PERIOD    7   TIME STEP  114
RIV   no.    1 value from time series:   101.00     for time:  266.0     to  267.0    
RIV   no.    2 value from time series:   101.00     for time:  266.0     to  267.0    
RIV   no.    3 value from time series:   111.50     for time:  266.0     to  267.0    
RIV   no.    4 value from time series:   111.50     for time:  266.0     to  267.0    
RIV   no.    5 value from time series:   115.10     for time:  266.0     to  267.0    
RIV   no.    6 value from time series:   115.10     for time:  266.0     to  267.0    
RIV   no.    7 value from time series:   104.00     for time:  266.0     to  267.0    
RIV   no.    8 value from time series:   104.00     for time:  266.0     to  267.0    
RIV   no.    9 value from time series:   113.50     for time:  266.0     to  267.0    
RIV   no.   10 value from time series:   113.50     for time:  266.0     to  267.0    
RIV   no.    1 value from time series:   101.00     for time:  266.0     to  267.0    
RIV   no.    2 value from time series:   101.00     for time:  266.0     to  267.0    
RIV   no.    3 value from time series:   111.50     for time:  266.0     to  267.0    
RIV   no.    4 value from time series:   111.50     for time:  266.0     to  267.0    
RIV   no.    5 value from time series:   115.10     for time:  266.0     to  267.0    
RIV   no.    6 value from time series:   115.10     for time:  266.0     to  267.0    
RIV   no.    7 value from time series:   104.00     for time:  266.0     to  267.0    
RIV   no.    8 value from time series:   104.00     for time:  266.0     to  267.0    
RIV   no.    9 value from time series:   113.50     for time:  266.0     to  267.0    
RIV   no.   10 value from time series:   113.50     for time:  266.0     to  267.0    

 NO OUTPUT CONTROL FOR STRESS PERIOD    7   TIME STEP  115
RIV   no.    1 value from time series:   101.00     for time:  267.0     to  268.0    
RIV   no.    2 value from time series:   101.00     for time:  267.0     to  268.0    
RIV   no.    3 value from time series:   111.50     for time:  267.0     to  268.0    
RIV   no.    4 value from time series:   111.50     for time:  267.0     to  268.0    
RIV   no.    5 value from time series:   115.10     for time:  267.0     to  268.0    
RIV   no.    6 value from time series:   115.10     for time:  267.0     to  268.0    
RIV   no.    7 value from time series:   104.00     for time:  267.0     to  268.0    
RIV   no.    8 value from time series:   104.00     for time:  267.0     to  268.0    
RIV   no.    9 value from time series:   113.50     for time:  267.0     to  268.0    
RIV   no.   10 value from time series:   113.50     for time:  267.0     to  268.0    
RIV   no.    1 value from time series:   101.00     for time:  267.0     to  268.0    
RIV   no.    2 value from time series:   101.00     for time:  267.0     to  268.0    
RIV   no.    3 value from time series:   111.50     for time:  267.0     to  268.0    
RIV   no.    4 value from time series:   111.50     for time:  267.0     to  268.0    
RIV   no.    5 value from time series:   115.10     for time:  267.0     to  268.0    
RIV   no.    6 value from time series:   115.10     for time:  267.0     to  268.0    
RIV   no.    7 value from time series:   104.00     for time:  267.0     to  268.0    
RIV   no.    8 value from time series:   104.00     for time:  267.0     to  268.0    
RIV   no.    9 value from time series:   113.50     for time:  267.0     to  268.0    
RIV   no.   10 value from time series:   113.50     for time:  267.0     to  268.0    

 NO OUTPUT CONTROL FOR STRESS PERIOD    7   TIME STEP  116
RIV   no.    1 value from time series:   101.00     for time:  268.0     to  269.0    
RIV   no.    2 value from time series:   101.00     for time:  268.0     to  269.0    
RIV   no.    3 value from time series:   111.50     for time:  268.0     to  269.0    
RIV   no.    4 value from time series:   111.50     for time:  268.0     to  269.0    
RIV   no.    5 value from time series:   115.10     for time:  268.0     to  269.0    
RIV   no.    6 value from time series:   115.10     for time:  268.0     to  269.0    
RIV   no.    7 value from time series:   104.00     for time:  268.0     to  269.0    
RIV   no.    8 value from time series:   104.00     for time:  268.0     to  269.0    
RIV   no.    9 value from time series:   113.50     for time:  268.0     to  269.0    
RIV   no.   10 value from time series:   113.50     for time:  268.0     to  269.0    
RIV   no.    1 value from time series:   101.00     for time:  268.0     to  269.0    
RIV   no.    2 value from time series:   101.00     for time:  268.0     to  269.0    
RIV   no.    3 value from time series:   111.50     for time:  268.0     to  269.0    
RIV   no.    4 value from time series:   111.50     for time:  268.0     to  269.0    
RIV   no.    5 value from time series:   115.10     for time:  268.0     to  269.0    
RIV   no.    6 value from time series:   115.10     for time:  268.0     to  269.0    
RIV   no.    7 value from time series:   104.00     for time:  268.0     to  269.0    
RIV   no.    8 value from time series:   104.00     for time:  268.0     to  269.0    
RIV   no.    9 value from time series:   113.50     for time:  268.0     to  269.0    
RIV   no.   10 value from time series:   113.50     for time:  268.0     to  269.0    

 NO OUTPUT CONTROL FOR STRESS PERIOD    7   TIME STEP  117
RIV   no.    1 value from time series:   101.00     for time:  269.0     to  270.0    
RIV   no.    2 value from time series:   101.00     for time:  269.0     to  270.0    
RIV   no.    3 value from time series:   111.50     for time:  269.0     to  270.0    
RIV   no.    4 value from time series:   111.50     for time:  269.0     to  270.0    
RIV   no.    5 value from time series:   115.10     for time:  269.0     to  270.0    
RIV   no.    6 value from time series:   115.10     for time:  269.0     to  270.0    
RIV   no.    7 value from time series:   104.00     for time:  269.0     to  270.0    
RIV   no.    8 value from time series:   104.00     for time:  269.0     to  270.0    
RIV   no.    9 value from time series:   113.50     for time:  269.0     to  270.0    
RIV   no.   10 value from time series:   113.50     for time:  269.0     to  270.0    
RIV   no.    1 value from time series:   101.00     for time:  269.0     to  270.0    
RIV   no.    2 value from time series:   101.00     for time:  269.0     to  270.0    
RIV   no.    3 value from time series:   111.50     for time:  269.0     to  270.0    
RIV   no.    4 value from time series:   111.50     for time:  269.0     to  270.0    
RIV   no.    5 value from time series:   115.10     for time:  269.0     to  270.0    
RIV   no.    6 value from time series:   115.10     for time:  269.0     to  270.0    
RIV   no.    7 value from time series:   104.00     for time:  269.0     to  270.0    
RIV   no.    8 value from time series:   104.00     for time:  269.0     to  270.0    
RIV   no.    9 value from time series:   113.50     for time:  269.0     to  270.0    
RIV   no.   10 value from time series:   113.50     for time:  269.0     to  270.0    

 NO OUTPUT CONTROL FOR STRESS PERIOD    7   TIME STEP  118
RIV   no.    1 value from time series:   101.00     for time:  270.0     to  271.0    
RIV   no.    2 value from time series:   101.00     for time:  270.0     to  271.0    
RIV   no.    3 value from time series:   111.50     for time:  270.0     to  271.0    
RIV   no.    4 value from time series:   111.50     for time:  270.0     to  271.0    
RIV   no.    5 value from time series:   115.10     for time:  270.0     to  271.0    
RIV   no.    6 value from time series:   115.10     for time:  270.0     to  271.0    
RIV   no.    7 value from time series:   104.00     for time:  270.0     to  271.0    
RIV   no.    8 value from time series:   104.00     for time:  270.0     to  271.0    
RIV   no.    9 value from time series:   113.50     for time:  270.0     to  271.0    
RIV   no.   10 value from time series:   113.50     for time:  270.0     to  271.0    
RIV   no.    1 value from time series:   101.00     for time:  270.0     to  271.0    
RIV   no.    2 value from time series:   101.00     for time:  270.0     to  271.0    
RIV   no.    3 value from time series:   111.50     for time:  270.0     to  271.0    
RIV   no.    4 value from time series:   111.50     for time:  270.0     to  271.0    
RIV   no.    5 value from time series:   115.10     for time:  270.0     to  271.0    
RIV   no.    6 value from time series:   115.10     for time:  270.0     to  271.0    
RIV   no.    7 value from time series:   104.00     for time:  270.0     to  271.0    
RIV   no.    8 value from time series:   104.00     for time:  270.0     to  271.0    
RIV   no.    9 value from time series:   113.50     for time:  270.0     to  271.0    
RIV   no.   10 value from time series:   113.50     for time:  270.0     to  271.0    

 NO OUTPUT CONTROL FOR STRESS PERIOD    7   TIME STEP  119
RIV   no.    1 value from time series:   101.00     for time:  271.0     to  272.0    
RIV   no.    2 value from time series:   101.00     for time:  271.0     to  272.0    
RIV   no.    3 value from time series:   111.50     for time:  271.0     to  272.0    
RIV   no.    4 value from time series:   111.50     for time:  271.0     to  272.0    
RIV   no.    5 value from time series:   115.10     for time:  271.0     to  272.0    
RIV   no.    6 value from time series:   115.10     for time:  271.0     to  272.0    
RIV   no.    7 value from time series:   104.00     for time:  271.0     to  272.0    
RIV   no.    8 value from time series:   104.00     for time:  271.0     to  272.0    
RIV   no.    9 value from time series:   113.50     for time:  271.0     to  272.0    
RIV   no.   10 value from time series:   113.50     for time:  271.0     to  272.0    
RIV   no.    1 value from time series:   101.00     for time:  271.0     to  272.0    
RIV   no.    2 value from time series:   101.00     for time:  271.0     to  272.0    
RIV   no.    3 value from time series:   111.50     for time:  271.0     to  272.0    
RIV   no.    4 value from time series:   111.50     for time:  271.0     to  272.0    
RIV   no.    5 value from time series:   115.10     for time:  271.0     to  272.0    
RIV   no.    6 value from time series:   115.10     for time:  271.0     to  272.0    
RIV   no.    7 value from time series:   104.00     for time:  271.0     to  272.0    
RIV   no.    8 value from time series:   104.00     for time:  271.0     to  272.0    
RIV   no.    9 value from time series:   113.50     for time:  271.0     to  272.0    
RIV   no.   10 value from time series:   113.50     for time:  271.0     to  272.0    

 NO OUTPUT CONTROL FOR STRESS PERIOD    7   TIME STEP  120
RIV   no.    1 value from time series:   101.00     for time:  272.0     to  273.0    
RIV   no.    2 value from time series:   101.00     for time:  272.0     to  273.0    
RIV   no.    3 value from time series:   111.50     for time:  272.0     to  273.0    
RIV   no.    4 value from time series:   111.50     for time:  272.0     to  273.0    
RIV   no.    5 value from time series:   115.10     for time:  272.0     to  273.0    
RIV   no.    6 value from time series:   115.10     for time:  272.0     to  273.0    
RIV   no.    7 value from time series:   104.00     for time:  272.0     to  273.0    
RIV   no.    8 value from time series:   104.00     for time:  272.0     to  273.0    
RIV   no.    9 value from time series:   113.50     for time:  272.0     to  273.0    
RIV   no.   10 value from time series:   113.50     for time:  272.0     to  273.0    
RIV   no.    1 value from time series:   101.00     for time:  272.0     to  273.0    
RIV   no.    2 value from time series:   101.00     for time:  272.0     to  273.0    
RIV   no.    3 value from time series:   111.50     for time:  272.0     to  273.0    
RIV   no.    4 value from time series:   111.50     for time:  272.0     to  273.0    
RIV   no.    5 value from time series:   115.10     for time:  272.0     to  273.0    
RIV   no.    6 value from time series:   115.10     for time:  272.0     to  273.0    
RIV   no.    7 value from time series:   104.00     for time:  272.0     to  273.0    
RIV   no.    8 value from time series:   104.00     for time:  272.0     to  273.0    
RIV   no.    9 value from time series:   113.50     for time:  272.0     to  273.0    
RIV   no.   10 value from time series:   113.50     for time:  272.0     to  273.0    

 NO OUTPUT CONTROL FOR STRESS PERIOD    7   TIME STEP  121
RIV   no.    1 value from time series:   101.00     for time:  273.0     to  274.0    
RIV   no.    2 value from time series:   101.00     for time:  273.0     to  274.0    
RIV   no.    3 value from time series:   111.50     for time:  273.0     to  274.0    
RIV   no.    4 value from time series:   111.50     for time:  273.0     to  274.0    
RIV   no.    5 value from time series:   115.10     for time:  273.0     to  274.0    
RIV   no.    6 value from time series:   115.10     for time:  273.0     to  274.0    
RIV   no.    7 value from time series:   104.00     for time:  273.0     to  274.0    
RIV   no.    8 value from time series:   104.00     for time:  273.0     to  274.0    
RIV   no.    9 value from time series:   113.50     for time:  273.0     to  274.0    
RIV   no.   10 value from time series:   113.50     for time:  273.0     to  274.0    
RIV   no.    1 value from time series:   101.00     for time:  273.0     to  274.0    
RIV   no.    2 value from time series:   101.00     for time:  273.0     to  274.0    
RIV   no.    3 value from time series:   111.50     for time:  273.0     to  274.0    
RIV   no.    4 value from time series:   111.50     for time:  273.0     to  274.0    
RIV   no.    5 value from time series:   115.10     for time:  273.0     to  274.0    
RIV   no.    6 value from time series:   115.10     for time:  273.0     to  274.0    
RIV   no.    7 value from time series:   104.00     for time:  273.0     to  274.0    
RIV   no.    8 value from time series:   104.00     for time:  273.0     to  274.0    
RIV   no.    9 value from time series:   113.50     for time:  273.0     to  274.0    
RIV   no.   10 value from time series:   113.50     for time:  273.0     to  274.0    

 OUTPUT CONTROL FOR STRESS PERIOD    7   TIME STEP  122
    PRINT BUDGET
    PRINT HEAD
    PRINT HEAD FOR ALL LAYERS
    SAVE BUDGET
    SAVE HEAD
    SAVE HEAD FOR ALL LAYERS
 UBDSV1 SAVING          STORAGE ON UNIT   1016 AT TIME STEP    122, STRESS PERIOD      7
 UBDSV1 SAVING FLOW RIGHT FACE  ON UNIT   1016 AT TIME STEP    122, STRESS PERIOD      7
 UBDSV1 SAVING FLOW FRONT FACE  ON UNIT   1016 AT TIME STEP    122, STRESS PERIOD      7
 UBDSV1 SAVING FLOW LOWER FACE  ON UNIT   1016 AT TIME STEP    122, STRESS PERIOD      7
 UBDSV4 SAVING WELLS NEAR RIVER ON UNIT   1016 AT TIME STEP    122, STRESS PERIOD      7
 UBDSV4 SAVING RIVER            ON UNIT   1016 AT TIME STEP    122, STRESS PERIOD      7

 RIVER              PERIOD  7   STEP122
 BOUNDARY      1   LAYER   1   ROW     1   COL    15   RATE    -5265.72    
 BOUNDARY      2   LAYER   1   ROW     2   COL    15   RATE    -6395.78      RIV2
 BOUNDARY      3   LAYER   1   ROW     3   COL    15   RATE    -2653.27      RIV3
 BOUNDARY      4   LAYER   1   ROW     4   COL    15   RATE    -4120.81    
 BOUNDARY      5   LAYER   1   ROW     5   COL    15   RATE    -2753.51    
 BOUNDARY      6   LAYER   1   ROW     6   COL    15   RATE    -2099.45    
 BOUNDARY      7   LAYER   1   ROW     7   COL    15   RATE    -6598.71      RIVX
 BOUNDARY      8   LAYER   1   ROW     8   COL    15   RATE    -6452.77      RIVX
 BOUNDARY      9   LAYER   1   ROW     9   COL    15   RATE    -2656.81      RIVX
 BOUNDARY     10   LAYER   1   ROW    10   COL    15   RATE    -3568.10    

 GHB LAKES          PERIOD  7   STEP122
 BOUNDARY      1   LAYER   1   ROW     3   COL     1   RATE    -15775.1    
 BOUNDARY      2   LAYER   1   ROW     7   COL     1   RATE    -2859.80      GHB2_UPPER
 BOUNDARY      3   LAYER   1   ROW     7   COL     1   RATE    -13600.3      GHB2_LOWER
 UBDSV4 SAVING RECHARGE         ON UNIT   1016 AT TIME STEP    122, STRESS PERIOD      7

 RECHARGE           PERIOD  7   STEP122
 BOUNDARY      1   LAYER   1   ROW     1   COL     1   RATE     680.208    
 BOUNDARY      2   LAYER   1   ROW     1   COL     2   RATE     680.208    
 BOUNDARY      3   LAYER   1   ROW     1   COL     3   RATE     680.208    
 BOUNDARY      4   LAYER   1   ROW     1   COL     4   RATE     680.208    
 BOUNDARY      5   LAYER   1   ROW     1   COL     5   RATE     680.208    
 BOUNDARY      6   LAYER   1   ROW     1   COL     6   RATE     680.208    
 BOUNDARY      7   LAYER   1   ROW     1   COL     7   RATE     680.208    
 BOUNDARY      8   LAYER   1   ROW     1   COL     8   RATE     680.208    
 BOUNDARY      9   LAYER   1   ROW     1   COL     9   RATE     680.208    
 BOUNDARY     10   LAYER   1   ROW     1   COL    10   RATE     680.208    
 BOUNDARY     11   LAYER   1   ROW     1   COL    11   RATE     680.208    
 BOUNDARY     12   LAYER   1   ROW     1   COL    12   RATE     680.208    
 BOUNDARY     13   LAYER   1   ROW     1   COL    13   RATE     680.208    
 BOUNDARY     14   LAYER   1   ROW     1   COL    14   RATE     680.208    
 BOUNDARY     15   LAYER   1   ROW     1   COL    15   RATE     680.208    
 BOUNDARY     16   LAYER   1   ROW     2   COL     1   RATE     680.208    
 BOUNDARY     17   LAYER   1   ROW     2   COL     2   RATE     680.208    
 BOUNDARY     18   LAYER   1   ROW     2   COL     3   RATE     680.208    
 BOUNDARY     19   LAYER   1   ROW     2   COL     4   RATE     680.208    
 BOUNDARY     20   LAYER   1   ROW     2   COL     5   RATE     680.208    
 BOUNDARY     21   LAYER   1   ROW     2   COL     6   RATE     680.208    
 BOUNDARY     22   LAYER   1   ROW     2   COL     7   RATE     680.208    
 BOUNDARY     23   LAYER   1   ROW     2   COL     8   RATE     680.208    
 BOUNDARY     24   LAYER   1   ROW     2   COL     9   RATE     680.208    
 BOUNDARY     25   LAYER   1   ROW     2   COL    10   RATE     680.208    
 BOUNDARY     26   LAYER   1   ROW     2   COL    11   RATE     680.208    
 BOUNDARY     27   LAYER   1   ROW     2   COL    12   RATE     680.208    
 BOUNDARY     28   LAYER   1   ROW     2   COL    13   RATE     680.208    
 BOUNDARY     29   LAYER   1   ROW     2   COL    14   RATE     680.208    
 BOUNDARY     30   LAYER   1   ROW     2   COL    15   RATE     680.208    
 BOUNDARY     31   LAYER   1   ROW     3   COL     1   RATE     680.208    
 BOUNDARY     32   LAYER   1   ROW     3   COL     2   RATE     680.208    
 BOUNDARY     33   LAYER   1   ROW     3   COL     3   RATE     680.208    
 BOUNDARY     34   LAYER   1   ROW     3   COL     4   RATE     680.208    
 BOUNDARY     35   LAYER   1   ROW     3   COL     5   RATE     680.208    
 BOUNDARY     36   LAYER   1   ROW     3   COL     6   RATE     680.208    
 BOUNDARY     37   LAYER   1   ROW     3   COL     7   RATE     680.208    
 BOUNDARY     38   LAYER   1   ROW     3   COL     8   RATE     680.208    
 BOUNDARY     39   LAYER   1   ROW     3   COL     9   RATE     680.208    
 BOUNDARY     40   LAYER   1   ROW     3   COL    10   RATE     680.208    
 BOUNDARY     41   LAYER   1   ROW     3   COL    11   RATE     680.208    
 BOUNDARY     42   LAYER   1   ROW     3   COL    12   RATE     680.208    
 BOUNDARY     43   LAYER   1   ROW     3   COL    13   RATE     680.208    
 BOUNDARY     44   LAYER   1   ROW     3   COL    14   RATE     680.208    
 BOUNDARY     45   LAYER   1   ROW     3   COL    15   RATE     680.208    
 BOUNDARY     46   LAYER   1   ROW     4   COL     1   RATE     680.208    
 BOUNDARY     47   LAYER   1   ROW     4   COL     2   RATE     680.208    
 BOUNDARY     48   LAYER   1   ROW     4   COL     3   RATE     680.208    
 BOUNDARY     49   LAYER   1   ROW     4   COL     4   RATE     680.208    
 BOUNDARY     50   LAYER   1   ROW     4   COL     5   RATE     680.208    
 BOUNDARY     51   LAYER   1   ROW     4   COL     6   RATE     680.208    
 BOUNDARY     52   LAYER   1   ROW     4   COL     7   RATE     680.208    
 BOUNDARY     53   LAYER   1   ROW     4   COL     8   RATE     680.208    
 BOUNDARY     54   LAYER   1   ROW     4   COL     9   RATE     680.208    
 BOUNDARY     55   LAYER   1   ROW     4   COL    10   RATE     680.208    
 BOUNDARY     56   LAYER   1   ROW     4   COL    11   RATE     680.208    
 BOUNDARY     57   LAYER   1   ROW     4   COL    12   RATE     680.208    
 BOUNDARY     58   LAYER   1   ROW     4   COL    13   RATE     680.208    
 BOUNDARY     59   LAYER   1   ROW     4   COL    14   RATE     680.208    
 BOUNDARY     60   LAYER   1   ROW     4   COL    15   RATE     680.208    
 BOUNDARY     61   LAYER   1   ROW     5   COL     1   RATE     680.208    
 BOUNDARY     62   LAYER   1   ROW     5   COL     2   RATE     680.208    
 BOUNDARY     63   LAYER   1   ROW     5   COL     3   RATE     680.208    
 BOUNDARY     64   LAYER   1   ROW     5   COL     4   RATE     680.208    
 BOUNDARY     65   LAYER   1   ROW     5   COL     5   RATE     680.208    
 BOUNDARY     66   LAYER   1   ROW     5   COL     6   RATE     680.208    
 BOUNDARY     67   LAYER   1   ROW     5   COL     7   RATE     680.208    
 BOUNDARY     68   LAYER   1   ROW     5   COL     8   RATE     680.208    
 BOUNDARY     69   LAYER   1   ROW     5   COL     9   RATE     680.208    
 BOUNDARY     70   LAYER   1   ROW     5   COL    10   RATE     680.208    
 BOUNDARY     71   LAYER   1   ROW     5   COL    11   RATE     680.208    
 BOUNDARY     72   LAYER   1   ROW     5   COL    12   RATE     680.208    
 BOUNDARY     73   LAYER   1   ROW     5   COL    13   RATE     680.208    
 BOUNDARY     74   LAYER   1   ROW     5   COL    14   RATE     680.208    
 BOUNDARY     75   LAYER   1   ROW     5   COL    15   RATE     680.208    
 BOUNDARY     76   LAYER   1   ROW     6   COL     1   RATE     680.208    
 BOUNDARY     77   LAYER   1   ROW     6   COL     2   RATE     680.208    
 BOUNDARY     78   LAYER   1   ROW     6   COL     3   RATE     680.208    
 BOUNDARY     79   LAYER   1   ROW     6   COL     4   RATE     680.208    
 BOUNDARY     80   LAYER   1   ROW     6   COL     5   RATE     680.208    
 BOUNDARY     81   LAYER   1   ROW     6   COL     6   RATE     680.208    
 BOUNDARY     82   LAYER   1   ROW     6   COL     7   RATE     680.208    
 BOUNDARY     83   LAYER   1   ROW     6   COL     8   RATE     680.208    
 BOUNDARY     84   LAYER   1   ROW     6   COL     9   RATE     680.208    
 BOUNDARY     85   LAYER   1   ROW     6   COL    10   RATE     680.208    
 BOUNDARY     86   LAYER   1   ROW     6   COL    11   RATE     680.208    
 BOUNDARY     87   LAYER   1   ROW     6   COL    12   RATE     680.208    
 BOUNDARY     88   LAYER   1   ROW     6   COL    13   RATE     680.208    
 BOUNDARY     89   LAYER   1   ROW     6   COL    14   RATE     680.208    
 BOUNDARY     90   LAYER   1   ROW     6   COL    15   RATE     680.208    
 BOUNDARY     91   LAYER   1   ROW     7   COL     1   RATE     680.208    
 BOUNDARY     92   LAYER   1   ROW     7   COL     2   RATE     680.208    
 BOUNDARY     93   LAYER   1   ROW     7   COL     3   RATE     680.208    
 BOUNDARY     94   LAYER   1   ROW     7   COL     4   RATE     680.208    
 BOUNDARY     95   LAYER   1   ROW     7   COL     5   RATE     680.208    
 BOUNDARY     96   LAYER   1   ROW     7   COL     6   RATE     680.208    
 BOUNDARY     97   LAYER   1   ROW     7   COL     7   RATE     680.208    
 BOUNDARY     98   LAYER   1   ROW     7   COL     8   RATE     680.208    
 BOUNDARY     99   LAYER   1   ROW     7   COL     9   RATE     680.208    
 BOUNDARY    100   LAYER   1   ROW     7   COL    10   RATE     680.208    
 BOUNDARY    101   LAYER   1   ROW     7   COL    11   RATE     680.208    
 BOUNDARY    102   LAYER   1   ROW     7   COL    12   RATE     680.208    
 BOUNDARY    103   LAYER   1   ROW     7   COL    13   RATE     680.208    
 BOUNDARY    104   LAYER   1   ROW     7   COL    14   RATE     680.208    
 BOUNDARY    105   LAYER   1   ROW     7   COL    15   RATE     680.208    
 BOUNDARY    106   LAYER   1   ROW     8   COL     1   RATE     680.208    
 BOUNDARY    107   LAYER   1   ROW     8   COL     2   RATE     680.208    
 BOUNDARY    108   LAYER   1   ROW     8   COL     3   RATE     680.208    
 BOUNDARY    109   LAYER   1   ROW     8   COL     4   RATE     680.208    
 BOUNDARY    110   LAYER   1   ROW     8   COL     5   RATE     680.208    
 BOUNDARY    111   LAYER   1   ROW     8   COL     6   RATE     680.208    
 BOUNDARY    112   LAYER   1   ROW     8   COL     7   RATE     680.208    
 BOUNDARY    113   LAYER   1   ROW     8   COL     8   RATE     680.208    
 BOUNDARY    114   LAYER   1   ROW     8   COL     9   RATE     680.208    
 BOUNDARY    115   LAYER   1   ROW     8   COL    10   RATE     680.208    
 BOUNDARY    116   LAYER   1   ROW     8   COL    11   RATE     680.208    
 BOUNDARY    117   LAYER   1   ROW     8   COL    12   RATE     680.208    
 BOUNDARY    118   LAYER   1   ROW     8   COL    13   RATE     680.208    
 BOUNDARY    119   LAYER   1   ROW     8   COL    14   RATE     680.208    
 BOUNDARY    120   LAYER   1   ROW     8   COL    15   RATE     680.208    
 BOUNDARY    121   LAYER   1   ROW     9   COL     1   RATE     680.208    
 BOUNDARY    122   LAYER   1   ROW     9   COL     2   RATE     680.208    
 BOUNDARY    123   LAYER   1   ROW     9   COL     3   RATE     680.208    
 BOUNDARY    124   LAYER   1   ROW     9   COL     4   RATE     680.208    
 BOUNDARY    125   LAYER   1   ROW     9   COL     5   RATE     680.208    
 BOUNDARY    126   LAYER   1   ROW     9   COL     6   RATE     680.208    
 BOUNDARY    127   LAYER   1   ROW     9   COL     7   RATE     680.208    
 BOUNDARY    128   LAYER   1   ROW     9   COL     8   RATE     680.208    
 BOUNDARY    129   LAYER   1   ROW     9   COL     9   RATE     680.208    
 BOUNDARY    130   LAYER   1   ROW     9   COL    10   RATE     680.208    
 BOUNDARY    131   LAYER   1   ROW     9   COL    11   RATE     680.208    
 BOUNDARY    132   LAYER   1   ROW     9   COL    12   RATE     680.208    
 BOUNDARY    133   LAYER   1   ROW     9   COL    13   RATE     680.208    
 BOUNDARY    134   LAYER   1   ROW     9   COL    14   RATE     680.208    
 BOUNDARY    135   LAYER   1   ROW     9   COL    15   RATE     680.208    
 BOUNDARY    136   LAYER   1   ROW    10   COL     1   RATE     680.208    
 BOUNDARY    137   LAYER   1   ROW    10   COL     2   RATE     680.208    
 BOUNDARY    138   LAYER   1   ROW    10   COL     3   RATE     680.208    
 BOUNDARY    139   LAYER   1   ROW    10   COL     4   RATE     680.208    
 BOUNDARY    140   LAYER   1   ROW    10   COL     5   RATE     680.208    
 BOUNDARY    141   LAYER   1   ROW    10   COL     6   RATE     680.208    
 BOUNDARY    142   LAYER   1   ROW    10   COL     7   RATE     680.208    
 BOUNDARY    143   LAYER   1   ROW    10   COL     8   RATE     680.208    
 BOUNDARY    144   LAYER   1   ROW    10   COL     9   RATE     680.208    
 BOUNDARY    145   LAYER   1   ROW    10   COL    10   RATE     680.208    
 BOUNDARY    146   LAYER   1   ROW    10   COL    11   RATE     680.208    
 BOUNDARY    147   LAYER   1   ROW    10   COL    12   RATE     680.208    
 BOUNDARY    148   LAYER   1   ROW    10   COL    13   RATE     680.208    
 BOUNDARY    149   LAYER   1   ROW    10   COL    14   RATE     680.208    
 BOUNDARY    150   LAYER   1   ROW    10   COL    15   RATE     680.208    
 UBDSV4 SAVING ET SEGS          ON UNIT   1016 AT TIME STEP    122, STRESS PERIOD      7

 ET SEGS            PERIOD  7   STEP122
 BOUNDARY      1   LAYER   1   ROW     1   COL     1   RATE    -6.63624    
 BOUNDARY      2   LAYER   1   ROW     1   COL     2   RATE    -22.0988    
 BOUNDARY      3   LAYER   1   ROW     1   COL     3   RATE   -100.0000    
 BOUNDARY      4   LAYER   1   ROW     1   COL     4   RATE   -100.0000    
 BOUNDARY      5   LAYER   1   ROW     1   COL     5   RATE   -100.0000    
 BOUNDARY      6   LAYER   1   ROW     1   COL     6   RATE   -100.0000    
 BOUNDARY      7   LAYER   1   ROW     1   COL     7   RATE   -100.0000    
 BOUNDARY      8   LAYER   1   ROW     1   COL     8   RATE   -100.0000    
 BOUNDARY      9   LAYER   1   ROW     1   COL     9   RATE   -100.0000    
 BOUNDARY     10   LAYER   1   ROW     1   COL    10   RATE   -100.0000    
 BOUNDARY     11   LAYER   1   ROW     1   COL    11   RATE   -100.0000    
 BOUNDARY     12   LAYER   1   ROW     1   COL    12   RATE    -44.5669    
 BOUNDARY     13   LAYER   1   ROW     1   COL    13   RATE    -3.56600    
 BOUNDARY     14   LAYER   1   ROW     1   COL    14   RATE     0.00000    
 BOUNDARY     15   LAYER   1   ROW     1   COL    15   RATE     0.00000    
 BOUNDARY     16   LAYER   1   ROW     2   COL     1   RATE     0.00000    
 BOUNDARY     17   LAYER   1   ROW     2   COL     2   RATE    -8.90633    
 BOUNDARY     18   LAYER   1   ROW     2   COL     3   RATE   -100.0000    
 BOUNDARY     19   LAYER   1   ROW     2   COL     4   RATE   -100.0000    
 BOUNDARY     20   LAYER   1   ROW     2   COL     5   RATE   -100.0000    
 BOUNDARY     21   LAYER   1   ROW     2   COL     6   RATE   -100.0000    
 BOUNDARY     22   LAYER   1   ROW     2   COL     7   RATE   -100.0000    
 BOUNDARY     23   LAYER   1   ROW     2   COL     8   RATE   -100.0000    
 BOUNDARY     24   LAYER   1   ROW     2   COL     9   RATE   -100.0000    
 BOUNDARY     25   LAYER   1   ROW     2   COL    10   RATE   -100.0000    
 BOUNDARY     26   LAYER   1   ROW     2   COL    11   RATE   -100.0000    
 BOUNDARY     27   LAYER   1   ROW     2   COL    12   RATE    -53.3153    
 BOUNDARY     28   LAYER   1   ROW     2   COL    13   RATE    -4.53610    
 BOUNDARY     29   LAYER   1   ROW     2   COL    14   RATE     0.00000    
 BOUNDARY     30   LAYER   1   ROW     2   COL    15   RATE     0.00000    
 BOUNDARY     31   LAYER   1   ROW     3   COL     1   RATE     0.00000    
 BOUNDARY     32   LAYER   1   ROW     3   COL     2   RATE    -1.67112    
 BOUNDARY     33   LAYER   1   ROW     3   COL     3   RATE    -69.6342    
 BOUNDARY     34   LAYER   1   ROW     3   COL     4   RATE   -100.0000    
 BOUNDARY     35   LAYER   1   ROW     3   COL     5   RATE   -100.0000    
 BOUNDARY     36   LAYER   1   ROW     3   COL     6   RATE   -100.0000    
 BOUNDARY     37   LAYER   1   ROW     3   COL     7   RATE   -100.0000    
 BOUNDARY     38   LAYER   1   ROW     3   COL     8   RATE   -100.0000    
 BOUNDARY     39   LAYER   1   ROW     3   COL     9   RATE   -100.0000    
 BOUNDARY     40   LAYER   1   ROW     3   COL    10   RATE   -100.0000    
 BOUNDARY     41   LAYER   1   ROW     3   COL    11   RATE   -100.0000    
 BOUNDARY     42   LAYER   1   ROW     3   COL    12   RATE    -68.0167    
 BOUNDARY     43   LAYER   1   ROW     3   COL    13   RATE    -6.29776    
 BOUNDARY     44   LAYER   1   ROW     3   COL    14   RATE     0.00000    
 BOUNDARY     45   LAYER   1   ROW     3   COL    15   RATE     0.00000    
 BOUNDARY     46   LAYER   1   ROW     4   COL     1   RATE     0.00000    
 BOUNDARY     47   LAYER   1   ROW     4   COL     2   RATE    -7.33878    
 BOUNDARY     48   LAYER   1   ROW     4   COL     3   RATE    -90.5673    
 BOUNDARY     49   LAYER   1   ROW     4   COL     4   RATE   -100.0000    
 BOUNDARY     50   LAYER   1   ROW     4   COL     5   RATE   -100.0000    
 BOUNDARY     51   LAYER   1   ROW     4   COL     6   RATE   -100.0000    
 BOUNDARY     52   LAYER   1   ROW     4   COL     7   RATE   -100.0000    
 BOUNDARY     53   LAYER   1   ROW     4   COL     8   RATE   -100.0000    
 BOUNDARY     54   LAYER   1   ROW     4   COL     9   RATE   -100.0000    
 BOUNDARY     55   LAYER   1   ROW     4   COL    10   RATE   -100.0000    
 BOUNDARY     56   LAYER   1   ROW     4   COL    11   RATE   -100.0000    
 BOUNDARY     57   LAYER   1   ROW     4   COL    12   RATE    -81.8705    
 BOUNDARY     58   LAYER   1   ROW     4   COL    13   RATE    -7.71372    
 BOUNDARY     59   LAYER   1   ROW     4   COL    14   RATE     0.00000    
 BOUNDARY     60   LAYER   1   ROW     4   COL    15   RATE     0.00000    
 BOUNDARY     61   LAYER   1   ROW     5   COL     1   RATE   -0.781303    
 BOUNDARY     62   LAYER   1   ROW     5   COL     2   RATE    -11.4240    
 BOUNDARY     63   LAYER   1   ROW     5   COL     3   RATE   -100.0000    
 BOUNDARY     64   LAYER   1   ROW     5   COL     4   RATE   -100.0000    
 BOUNDARY     65   LAYER   1   ROW     5   COL     5   RATE   -100.0000    
 BOUNDARY     66   LAYER   1   ROW     5   COL     6   RATE   -100.0000    
 BOUNDARY     67   LAYER   1   ROW     5   COL     7   RATE   -100.0000    
 BOUNDARY     68   LAYER   1   ROW     5   COL     8   RATE   -100.0000    
 BOUNDARY     69   LAYER   1   ROW     5   COL     9   RATE   -100.0000    
 BOUNDARY     70   LAYER   1   ROW     5   COL    10   RATE   -100.0000    
 BOUNDARY     71   LAYER   1   ROW     5   COL    11   RATE   -100.0000    
 BOUNDARY     72   LAYER   1   ROW     5   COL    12   RATE    -91.3446    
 BOUNDARY     73   LAYER   1   ROW     5   COL    13   RATE    -8.56717    
 BOUNDARY     74   LAYER   1   ROW     5   COL    14   RATE     0.00000    
 BOUNDARY     75   LAYER   1   ROW     5   COL    15   RATE     0.00000    
 BOUNDARY     76   LAYER   1   ROW     6   COL     1   RATE     0.00000    
 BOUNDARY     77   LAYER   1   ROW     6   COL     2   RATE    -8.83083    
 BOUNDARY     78   LAYER   1   ROW     6   COL     3   RATE   -100.0000    
 BOUNDARY     79   LAYER   1   ROW     6   COL     4   RATE   -100.0000    
 BOUNDARY     80   LAYER   1   ROW     6   COL     5   RATE   -100.0000    
 BOUNDARY     81   LAYER   1   ROW     6   COL     6   RATE   -100.0000    
 BOUNDARY     82   LAYER   1   ROW     6   COL     7   RATE   -100.0000    
 BOUNDARY     83   LAYER   1   ROW     6   COL     8   RATE   -100.0000    
 BOUNDARY     84   LAYER   1   ROW     6   COL     9   RATE   -100.0000    
 BOUNDARY     85   LAYER   1   ROW     6   COL    10   RATE   -100.0000    
 BOUNDARY     86   LAYER   1   ROW     6   COL    11   RATE   -100.0000    
 BOUNDARY     87   LAYER   1   ROW     6   COL    12   RATE    -94.5963    
 BOUNDARY     88   LAYER   1   ROW     6   COL    13   RATE    -8.51551    
 BOUNDARY     89   LAYER   1   ROW     6   COL    14   RATE     0.00000    
 BOUNDARY     90   LAYER   1   ROW     6   COL    15   RATE     0.00000    
 BOUNDARY     91   LAYER   1   ROW     7   COL     1   RATE     0.00000    
 BOUNDARY     92   LAYER   1   ROW     7   COL     2   RATE    -4.99599    
 BOUNDARY     93   LAYER   1   ROW     7   COL     3   RATE   -100.0000    
 BOUNDARY     94   LAYER   1   ROW     7   COL     4   RATE   -100.0000    
 BOUNDARY     95   LAYER   1   ROW     7   COL     5   RATE   -100.0000    
 BOUNDARY     96   LAYER   1   ROW     7   COL     6   RATE   -100.0000    
 BOUNDARY     97   LAYER   1   ROW     7   COL     7   RATE   -100.0000    
 BOUNDARY     98   LAYER   1   ROW     7   COL     8   RATE   -100.0000    
 BOUNDARY     99   LAYER   1   ROW     7   COL     9   RATE   -100.0000    
 BOUNDARY    100   LAYER   1   ROW     7   COL    10   RATE   -100.0000    
 BOUNDARY    101   LAYER   1   ROW     7   COL    11   RATE   -100.0000    
 BOUNDARY    102   LAYER   1   ROW     7   COL    12   RATE    -94.1382    
 BOUNDARY    103   LAYER   1   ROW     7   COL    13   RATE    -7.82841    
 BOUNDARY    104   LAYER   1   ROW     7   COL    14   RATE     0.00000    
 BOUNDARY    105   LAYER   1   ROW     7   COL    15   RATE     0.00000    
 BOUNDARY    106   LAYER   1   ROW     8   COL     1   RATE    -2.21620    
 BOUNDARY    107   LAYER   1   ROW     8   COL     2   RATE    -26.0092    
 BOUNDARY    108   LAYER   1   ROW     8   COL     3   RATE   -100.0000    
 BOUNDARY    109   LAYER   1   ROW     8   COL     4   RATE   -100.0000    
 BOUNDARY    110   LAYER   1   ROW     8   COL     5   RATE   -100.0000    
 BOUNDARY    111   LAYER   1   ROW     8   COL     6   RATE   -100.0000    
 BOUNDARY    112   LAYER   1   ROW     8   COL     7   RATE   -100.0000    
 BOUNDARY    113   LAYER   1   ROW     8   COL     8   RATE   -100.0000    
 BOUNDARY    114   LAYER   1   ROW     8   COL     9   RATE   -100.0000    
 BOUNDARY    115   LAYER   1   ROW     8   COL    10   RATE   -100.0000    
 BOUNDARY    116   LAYER   1   ROW     8   COL    11   RATE   -100.0000    
 BOUNDARY    117   LAYER   1   ROW     8   COL    12   RATE    -96.7338    
 BOUNDARY    118   LAYER   1   ROW     8   COL    13   RATE    -7.89358    
 BOUNDARY    119   LAYER   1   ROW     8   COL    14   RATE     0.00000    
 BOUNDARY    120   LAYER   1   ROW     8   COL    15   RATE     0.00000    
 BOUNDARY    121   LAYER   1   ROW     9   COL     1   RATE    -49.9742    
 BOUNDARY    122   LAYER   1   ROW     9   COL     2   RATE   -100.0000    
 BOUNDARY    123   LAYER   1   ROW     9   COL     3   RATE   -100.0000    
 BOUNDARY    124   LAYER   1   ROW     9   COL     4   RATE   -100.0000    
 BOUNDARY    125   LAYER   1   ROW     9   COL     5   RATE   -100.0000    
 BOUNDARY    126   LAYER   1   ROW     9   COL     6   RATE   -100.0000    
 BOUNDARY    127   LAYER   1   ROW     9   COL     7   RATE   -100.0000    
 BOUNDARY    128   LAYER   1   ROW     9   COL     8   RATE   -100.0000    
 BOUNDARY    129   LAYER   1   ROW     9   COL     9   RATE   -100.0000    
 BOUNDARY    130   LAYER   1   ROW     9   COL    10   RATE   -100.0000    
 BOUNDARY    131   LAYER   1   ROW     9   COL    11   RATE   -100.0000    
 BOUNDARY    132   LAYER   1   ROW     9   COL    12   RATE   -100.0000    
 BOUNDARY    133   LAYER   1   ROW     9   COL    13   RATE    -8.77471    
 BOUNDARY    134   LAYER   1   ROW     9   COL    14   RATE     0.00000    
 BOUNDARY    135   LAYER   1   ROW     9   COL    15   RATE     0.00000    
 BOUNDARY    136   LAYER   1   ROW    10   COL     1   RATE   -100.0000    
 BOUNDARY    137   LAYER   1   ROW    10   COL     2   RATE   -100.0000    
 BOUNDARY    138   LAYER   1   ROW    10   COL     3   RATE   -100.0000    
 BOUNDARY    139   LAYER   1   ROW    10   COL     4   RATE   -100.0000    
 BOUNDARY    140   LAYER   1   ROW    10   COL     5   RATE   -100.0000    
 BOUNDARY    141   LAYER   1   ROW    10   COL     6   RATE   -100.0000    
 BOUNDARY    142   LAYER   1   ROW    10   COL     7   RATE   -100.0000    
 BOUNDARY    143   LAYER   1   ROW    10   COL     8   RATE   -100.0000    
 BOUNDARY    144   LAYER   1   ROW    10   COL     9   RATE   -100.0000    
 BOUNDARY    145   LAYER   1   ROW    10   COL    10   RATE   -100.0000    
 BOUNDARY    146   LAYER   1   ROW    10   COL    11   RATE   -100.0000    
 BOUNDARY    147   LAYER   1   ROW    10   COL    12   RATE   -100.0000    
 BOUNDARY    148   LAYER   1   ROW    10   COL    13   RATE    -9.33761    
 BOUNDARY    149   LAYER   1   ROW    10   COL    14   RATE     0.00000    
 BOUNDARY    150   LAYER   1   ROW    10   COL    15   RATE     0.00000    
1
  HEAD             IN LAYER   1 AT END OF TIME STEP 122 IN STRESS PERIOD    7
  ---------------------------------------------------------------------------

           1       2       3       4       5       6       7       8       9      10      11      12      13      14      15
 ...........................................................................................................................
   1   133.32  136.81  140.91  144.50  147.22  148.98  149.78  149.63  148.51  146.36  143.07  138.42  131.78  122.01  106.26
   2   127.74  134.45  140.06  144.22  147.14  148.98  149.82  149.68  148.57  146.45  143.21  138.67  132.27  122.90  107.38
   3   110.50  130.84  139.13  143.98  147.11  149.03  149.94  149.80  148.69  146.60  143.45  139.09  133.15  125.02  114.15
   4   126.44  133.67  139.73  144.17  147.25  149.22  150.37  150.25  148.89  146.80  143.71  139.48  133.86  126.25  115.60
   5   130.39  135.21  140.34  144.51  147.53  149.54  150.74  150.60  149.15  147.00  143.92  139.75  134.28  127.07  117.84
   6   127.12  134.42  140.43  144.82  147.90  149.98  151.14  150.94  149.41  147.18  144.06  139.85  134.26  126.75  117.19
   7   112.04  132.50  140.63  145.33  148.45  150.64  151.61  151.29  149.68  147.36  144.17  139.83  133.91  125.21  110.55
   8   131.11  137.40  142.54  146.33  149.12  151.20  152.03  151.64  149.95  147.52  144.28  139.91  133.95  125.16  110.40
   9   138.57  141.22  144.43  147.33  149.77  151.66  152.39  151.96  150.37  147.69  144.40  140.09  134.39  126.58  116.13
  10   141.46  143.11  145.49  147.96  150.35  151.97  152.60  152.14  150.54  147.79  144.48  140.22  134.67  127.20  117.03
1
  HEAD             IN LAYER   2 AT END OF TIME STEP 122 IN STRESS PERIOD    7
  ---------------------------------------------------------------------------

           1       2       3       4       5       6       7       8       9      10      11      12      13      14      15
 ...........................................................................................................................
   1   134.20  136.53  139.77  142.91  145.44  147.14  147.92  147.74  146.56  144.35  141.05  136.61  131.06  124.75  119.17
   2   132.32  135.48  139.31  142.74  145.41  147.17  147.97  147.80  146.63  144.44  141.19  136.85  131.45  125.39  120.06
   3   129.57  134.30  138.87  142.62  145.42  147.25  148.10  147.94  146.78  144.61  141.43  137.23  132.11  126.54  121.96
   4   131.63  135.04  139.14  142.78  145.59  147.45  148.34  148.19  146.99  144.83  141.70  137.62  132.71  127.46  123.19
   5   132.89  135.78  139.58  143.11  145.88  147.74  148.64  148.47  147.23  145.05  141.94  137.90  133.10  128.00  123.96
   6   132.52  135.90  139.94  143.51  146.28  148.13  148.99  148.78  147.49  145.26  142.11  138.05  133.18  127.96  123.75
   7   131.48  136.13  140.52  144.10  146.80  148.59  149.38  149.09  147.74  145.45  142.25  138.12  133.09  127.51  122.61
   8   135.53  138.43  141.87  144.97  147.41  149.07  149.76  149.40  147.98  145.63  142.39  138.22  133.17  127.54  122.59
   9   138.90  140.71  143.27  145.82  147.98  149.48  150.07  149.65  148.20  145.79  142.52  138.37  133.43  128.10  123.72
  10   140.65  142.00  144.10  146.35  148.35  149.73  150.25  149.79  148.32  145.88  142.60  138.49  133.63  128.46  124.28

 HEAD WILL BE SAVED ON UNIT 1017 AT END OF TIME STEP  122, STRESS PERIOD    7
1
  VOLUME BUDGET FOR ENTIRE MODEL AT END OF TIME STEP  122, STRESS PERIOD   7
  ------------------------------------------------------------------------------

     CUMULATIVE VOLUME      L**3       RATES FOR THIS TIME STEP      L**3/T
     ------------------                 ------------------------

           IN:                                      IN:
           ---                                      ---
             STORAGE =       62216.4586               STORAGE =         283.2662
    WELLS NEAR RIVER =           0.0000      WELLS NEAR RIVER =           0.0000
               RIVER =           0.0000                 RIVER =           0.0000
           GHB LAKES =           0.0000             GHB LAKES =           0.0000
            RECHARGE =    30644375.0000              RECHARGE =      102031.2500
             ET SEGS =           0.0000               ET SEGS =           0.0000

            TOTAL IN =    30706591.4586              TOTAL IN =      102314.5162

          OUT:                                     OUT:
          ----                                     ----
             STORAGE =     8666824.2390               STORAGE =       17205.7006
    WELLS NEAR RIVER =        5570.0000      WELLS NEAR RIVER =           0.0000
               RIVER =    10966302.9885                 RIVER =       42564.9214
           GHB LAKES =     8441109.2729             GHB LAKES =       32235.1971
            RECHARGE =           0.0000              RECHARGE =           0.0000
             ET SEGS =     2626784.9736               ET SEGS =       10308.6974

           TOTAL OUT =    30706591.4739             TOTAL OUT =      102314.5165

            IN - OUT =      -1.5391E-02              IN - OUT =      -2.6832E-04

 PERCENT DISCREPANCY =          -0.00     PERCENT DISCREPANCY =          -0.00






         TIME SUMMARY AT END OF TIME STEP  122 IN STRESS PERIOD    7
                    SECONDS     MINUTES      HOURS       DAYS        YEARS
                    -----------------------------------------------------------
   TIME STEP LENGTH  86400.      1440.0      24.000     1.00000     2.73785E-03
 STRESS PERIOD TIME 1.05408E+07 1.75680E+05  2928.0      122.00     0.33402    
         TOTAL TIME 2.36736E+07 3.94560E+05  6576.0      274.00     0.75017    
RIV   no.    1 value from time series:   101.00     for time:  274.0     to  275.0    
RIV   no.    2 value from time series:   101.00     for time:  274.0     to  275.0    
RIV   no.    3 value from time series:   111.50     for time:  274.0     to  275.0    
RIV   no.    4 value from time series:   111.50     for time:  274.0     to  275.0    
RIV   no.    5 value from time series:   115.10     for time:  274.0     to  275.0    
RIV   no.    6 value from time series:   115.10     for time:  274.0     to  275.0    
RIV   no.    7 value from time series:   104.00     for time:  274.0     to  275.0    
RIV   no.    8 value from time series:   104.00     for time:  274.0     to  275.0    
RIV   no.    9 value from time series:   113.50     for time:  274.0     to  275.0    
RIV   no.   10 value from time series:   113.50     for time:  274.0     to  275.0    
RIV   no.    1 value from time series:   101.00     for time:  274.0     to  275.0    
RIV   no.    2 value from time series:   101.00     for time:  274.0     to  275.0    
RIV   no.    3 value from time series:   111.50     for time:  274.0     to  275.0    
RIV   no.    4 value from time series:   111.50     for time:  274.0     to  275.0    
RIV   no.    5 value from time series:   115.10     for time:  274.0     to  275.0    
RIV   no.    6 value from time series:   115.10     for time:  274.0     to  275.0    
RIV   no.    7 value from time series:   104.00     for time:  274.0     to  275.0    
RIV   no.    8 value from time series:   104.00     for time:  274.0     to  275.0    
RIV   no.    9 value from time series:   113.50     for time:  274.0     to  275.0    
RIV   no.   10 value from time series:   113.50     for time:  274.0     to  275.0    

 NO OUTPUT CONTROL FOR STRESS PERIOD    7   TIME STEP  123
RIV   no.    1 value from time series:   101.00     for time:  275.0     to  276.0    
RIV   no.    2 value from time series:   101.00     for time:  275.0     to  276.0    
RIV   no.    3 value from time series:   111.50     for time:  275.0     to  276.0    
RIV   no.    4 value from time series:   111.50     for time:  275.0     to  276.0    
RIV   no.    5 value from time series:   115.10     for time:  275.0     to  276.0    
RIV   no.    6 value from time series:   115.10     for time:  275.0     to  276.0    
RIV   no.    7 value from time series:   104.00     for time:  275.0     to  276.0    
RIV   no.    8 value from time series:   104.00     for time:  275.0     to  276.0    
RIV   no.    9 value from time series:   113.50     for time:  275.0     to  276.0    
RIV   no.   10 value from time series:   113.50     for time:  275.0     to  276.0    
RIV   no.    1 value from time series:   101.00     for time:  275.0     to  276.0    
RIV   no.    2 value from time series:   101.00     for time:  275.0     to  276.0    
RIV   no.    3 value from time series:   111.50     for time:  275.0     to  276.0    
RIV   no.    4 value from time series:   111.50     for time:  275.0     to  276.0    
RIV   no.    5 value from time series:   115.10     for time:  275.0     to  276.0    
RIV   no.    6 value from time series:   115.10     for time:  275.0     to  276.0    
RIV   no.    7 value from time series:   104.00     for time:  275.0     to  276.0    
RIV   no.    8 value from time series:   104.00     for time:  275.0     to  276.0    
RIV   no.    9 value from time series:   113.50     for time:  275.0     to  276.0    
RIV   no.   10 value from time series:   113.50     for time:  275.0     to  276.0    

 NO OUTPUT CONTROL FOR STRESS PERIOD    7   TIME STEP  124
RIV   no.    1 value from time series:   101.00     for time:  276.0     to  277.0    
RIV   no.    2 value from time series:   101.00     for time:  276.0     to  277.0    
RIV   no.    3 value from time series:   111.50     for time:  276.0     to  277.0    
RIV   no.    4 value from time series:   111.50     for time:  276.0     to  277.0    
RIV   no.    5 value from time series:   115.10     for time:  276.0     to  277.0    
RIV   no.    6 value from time series:   115.10     for time:  276.0     to  277.0    
RIV   no.    7 value from time series:   104.00     for time:  276.0     to  277.0    
RIV   no.    8 value from time series:   104.00     for time:  276.0     to  277.0    
RIV   no.    9 value from time series:   113.50     for time:  276.0     to  277.0    
RIV   no.   10 value from time series:   113.50     for time:  276.0     to  277.0    
RIV   no.    1 value from time series:   101.00     for time:  276.0     to  277.0    
RIV   no.    2 value from time series:   101.00     for time:  276.0     to  277.0    
RIV   no.    3 value from time series:   111.50     for time:  276.0     to  277.0    
RIV   no.    4 value from time series:   111.50     for time:  276.0     to  277.0    
RIV   no.    5 value from time series:   115.10     for time:  276.0     to  277.0    
RIV   no.    6 value from time series:   115.10     for time:  276.0     to  277.0    
RIV   no.    7 value from time series:   104.00     for time:  276.0     to  277.0    
RIV   no.    8 value from time series:   104.00     for time:  276.0     to  277.0    
RIV   no.    9 value from time series:   113.50     for time:  276.0     to  277.0    
RIV   no.   10 value from time series:   113.50     for time:  276.0     to  277.0    

 NO OUTPUT CONTROL FOR STRESS PERIOD    7   TIME STEP  125
RIV   no.    1 value from time series:   101.00     for time:  277.0     to  278.0    
RIV   no.    2 value from time series:   101.00     for time:  277.0     to  278.0    
RIV   no.    3 value from time series:   111.50     for time:  277.0     to  278.0    
RIV   no.    4 value from time series:   111.50     for time:  277.0     to  278.0    
RIV   no.    5 value from time series:   115.10     for time:  277.0     to  278.0    
RIV   no.    6 value from time series:   115.10     for time:  277.0     to  278.0    
RIV   no.    7 value from time series:   104.00     for time:  277.0     to  278.0    
RIV   no.    8 value from time series:   104.00     for time:  277.0     to  278.0    
RIV   no.    9 value from time series:   113.50     for time:  277.0     to  278.0    
RIV   no.   10 value from time series:   113.50     for time:  277.0     to  278.0    
RIV   no.    1 value from time series:   101.00     for time:  277.0     to  278.0    
RIV   no.    2 value from time series:   101.00     for time:  277.0     to  278.0    
RIV   no.    3 value from time series:   111.50     for time:  277.0     to  278.0    
RIV   no.    4 value from time series:   111.50     for time:  277.0     to  278.0    
RIV   no.    5 value from time series:   115.10     for time:  277.0     to  278.0    
RIV   no.    6 value from time series:   115.10     for time:  277.0     to  278.0    
RIV   no.    7 value from time series:   104.00     for time:  277.0     to  278.0    
RIV   no.    8 value from time series:   104.00     for time:  277.0     to  278.0    
RIV   no.    9 value from time series:   113.50     for time:  277.0     to  278.0    
RIV   no.   10 value from time series:   113.50     for time:  277.0     to  278.0    

 NO OUTPUT CONTROL FOR STRESS PERIOD    7   TIME STEP  126
RIV   no.    1 value from time series:   101.00     for time:  278.0     to  279.0    
RIV   no.    2 value from time series:   101.00     for time:  278.0     to  279.0    
RIV   no.    3 value from time series:   111.50     for time:  278.0     to  279.0    
RIV   no.    4 value from time series:   111.50     for time:  278.0     to  279.0    
RIV   no.    5 value from time series:   115.10     for time:  278.0     to  279.0    
RIV   no.    6 value from time series:   115.10     for time:  278.0     to  279.0    
RIV   no.    7 value from time series:   104.00     for time:  278.0     to  279.0    
RIV   no.    8 value from time series:   104.00     for time:  278.0     to  279.0    
RIV   no.    9 value from time series:   113.50     for time:  278.0     to  279.0    
RIV   no.   10 value from time series:   113.50     for time:  278.0     to  279.0    
RIV   no.    1 value from time series:   101.00     for time:  278.0     to  279.0    
RIV   no.    2 value from time series:   101.00     for time:  278.0     to  279.0    
RIV   no.    3 value from time series:   111.50     for time:  278.0     to  279.0    
RIV   no.    4 value from time series:   111.50     for time:  278.0     to  279.0    
RIV   no.    5 value from time series:   115.10     for time:  278.0     to  279.0    
RIV   no.    6 value from time series:   115.10     for time:  278.0     to  279.0    
RIV   no.    7 value from time series:   104.00     for time:  278.0     to  279.0    
RIV   no.    8 value from time series:   104.00     for time:  278.0     to  279.0    
RIV   no.    9 value from time series:   113.50     for time:  278.0     to  279.0    
RIV   no.   10 value from time series:   113.50     for time:  278.0     to  279.0    

 NO OUTPUT CONTROL FOR STRESS PERIOD    7   TIME STEP  127
RIV   no.    1 value from time series:   101.00     for time:  279.0     to  280.0    
RIV   no.    2 value from time series:   101.00     for time:  279.0     to  280.0    
RIV   no.    3 value from time series:   111.50     for time:  279.0     to  280.0    
RIV   no.    4 value from time series:   111.50     for time:  279.0     to  280.0    
RIV   no.    5 value from time series:   115.10     for time:  279.0     to  280.0    
RIV   no.    6 value from time series:   115.10     for time:  279.0     to  280.0    
RIV   no.    7 value from time series:   104.00     for time:  279.0     to  280.0    
RIV   no.    8 value from time series:   104.00     for time:  279.0     to  280.0    
RIV   no.    9 value from time series:   113.50     for time:  279.0     to  280.0    
RIV   no.   10 value from time series:   113.50     for time:  279.0     to  280.0    
RIV   no.    1 value from time series:   101.00     for time:  279.0     to  280.0    
RIV   no.    2 value from time series:   101.00     for time:  279.0     to  280.0    
RIV   no.    3 value from time series:   111.50     for time:  279.0     to  280.0    
RIV   no.    4 value from time series:   111.50     for time:  279.0     to  280.0    
RIV   no.    5 value from time series:   115.10     for time:  279.0     to  280.0    
RIV   no.    6 value from time series:   115.10     for time:  279.0     to  280.0    
RIV   no.    7 value from time series:   104.00     for time:  279.0     to  280.0    
RIV   no.    8 value from time series:   104.00     for time:  279.0     to  280.0    
RIV   no.    9 value from time series:   113.50     for time:  279.0     to  280.0    
RIV   no.   10 value from time series:   113.50     for time:  279.0     to  280.0    

 NO OUTPUT CONTROL FOR STRESS PERIOD    7   TIME STEP  128
RIV   no.    1 value from time series:   101.00     for time:  280.0     to  281.0    
RIV   no.    2 value from time series:   101.00     for time:  280.0     to  281.0    
RIV   no.    3 value from time series:   111.50     for time:  280.0     to  281.0    
RIV   no.    4 value from time series:   111.50     for time:  280.0     to  281.0    
RIV   no.    5 value from time series:   115.10     for time:  280.0     to  281.0    
RIV   no.    6 value from time series:   115.10     for time:  280.0     to  281.0    
RIV   no.    7 value from time series:   104.00     for time:  280.0     to  281.0    
RIV   no.    8 value from time series:   104.00     for time:  280.0     to  281.0    
RIV   no.    9 value from time series:   113.50     for time:  280.0     to  281.0    
RIV   no.   10 value from time series:   113.50     for time:  280.0     to  281.0    
RIV   no.    1 value from time series:   101.00     for time:  280.0     to  281.0    
RIV   no.    2 value from time series:   101.00     for time:  280.0     to  281.0    
RIV   no.    3 value from time series:   111.50     for time:  280.0     to  281.0    
RIV   no.    4 value from time series:   111.50     for time:  280.0     to  281.0    
RIV   no.    5 value from time series:   115.10     for time:  280.0     to  281.0    
RIV   no.    6 value from time series:   115.10     for time:  280.0     to  281.0    
RIV   no.    7 value from time series:   104.00     for time:  280.0     to  281.0    
RIV   no.    8 value from time series:   104.00     for time:  280.0     to  281.0    
RIV   no.    9 value from time series:   113.50     for time:  280.0     to  281.0    
RIV   no.   10 value from time series:   113.50     for time:  280.0     to  281.0    

 NO OUTPUT CONTROL FOR STRESS PERIOD    7   TIME STEP  129
RIV   no.    1 value from time series:   101.00     for time:  281.0     to  282.0    
RIV   no.    2 value from time series:   101.00     for time:  281.0     to  282.0    
RIV   no.    3 value from time series:   111.50     for time:  281.0     to  282.0    
RIV   no.    4 value from time series:   111.50     for time:  281.0     to  282.0    
RIV   no.    5 value from time series:   115.10     for time:  281.0     to  282.0    
RIV   no.    6 value from time series:   115.10     for time:  281.0     to  282.0    
RIV   no.    7 value from time series:   104.00     for time:  281.0     to  282.0    
RIV   no.    8 value from time series:   104.00     for time:  281.0     to  282.0    
RIV   no.    9 value from time series:   113.50     for time:  281.0     to  282.0    
RIV   no.   10 value from time series:   113.50     for time:  281.0     to  282.0    
RIV   no.    1 value from time series:   101.00     for time:  281.0     to  282.0    
RIV   no.    2 value from time series:   101.00     for time:  281.0     to  282.0    
RIV   no.    3 value from time series:   111.50     for time:  281.0     to  282.0    
RIV   no.    4 value from time series:   111.50     for time:  281.0     to  282.0    
RIV   no.    5 value from time series:   115.10     for time:  281.0     to  282.0    
RIV   no.    6 value from time series:   115.10     for time:  281.0     to  282.0    
RIV   no.    7 value from time series:   104.00     for time:  281.0     to  282.0    
RIV   no.    8 value from time series:   104.00     for time:  281.0     to  282.0    
RIV   no.    9 value from time series:   113.50     for time:  281.0     to  282.0    
RIV   no.   10 value from time series:   113.50     for time:  281.0     to  282.0    

 NO OUTPUT CONTROL FOR STRESS PERIOD    7   TIME STEP  130
RIV   no.    1 value from time series:   101.00     for time:  282.0     to  283.0    
RIV   no.    2 value from time series:   101.00     for time:  282.0     to  283.0    
RIV   no.    3 value from time series:   111.50     for time:  282.0     to  283.0    
RIV   no.    4 value from time series:   111.50     for time:  282.0     to  283.0    
RIV   no.    5 value from time series:   115.10     for time:  282.0     to  283.0    
RIV   no.    6 value from time series:   115.10     for time:  282.0     to  283.0    
RIV   no.    7 value from time series:   104.00     for time:  282.0     to  283.0    
RIV   no.    8 value from time series:   104.00     for time:  282.0     to  283.0    
RIV   no.    9 value from time series:   113.50     for time:  282.0     to  283.0    
RIV   no.   10 value from time series:   113.50     for time:  282.0     to  283.0    
RIV   no.    1 value from time series:   101.00     for time:  282.0     to  283.0    
RIV   no.    2 value from time series:   101.00     for time:  282.0     to  283.0    
RIV   no.    3 value from time series:   111.50     for time:  282.0     to  283.0    
RIV   no.    4 value from time series:   111.50     for time:  282.0     to  283.0    
RIV   no.    5 value from time series:   115.10     for time:  282.0     to  283.0    
RIV   no.    6 value from time series:   115.10     for time:  282.0     to  283.0    
RIV   no.    7 value from time series:   104.00     for time:  282.0     to  283.0    
RIV   no.    8 value from time series:   104.00     for time:  282.0     to  283.0    
RIV   no.    9 value from time series:   113.50     for time:  282.0     to  283.0    
RIV   no.   10 value from time series:   113.50     for time:  282.0     to  283.0    

 NO OUTPUT CONTROL FOR STRESS PERIOD    7   TIME STEP  131
RIV   no.    1 value from time series:   101.00     for time:  283.0     to  284.0    
RIV   no.    2 value from time series:   101.00     for time:  283.0     to  284.0    
RIV   no.    3 value from time series:   111.50     for time:  283.0     to  284.0    
RIV   no.    4 value from time series:   111.50     for time:  283.0     to  284.0    
RIV   no.    5 value from time series:   115.10     for time:  283.0     to  284.0    
RIV   no.    6 value from time series:   115.10     for time:  283.0     to  284.0    
RIV   no.    7 value from time series:   104.00     for time:  283.0     to  284.0    
RIV   no.    8 value from time series:   104.00     for time:  283.0     to  284.0    
RIV   no.    9 value from time series:   113.50     for time:  283.0     to  284.0    
RIV   no.   10 value from time series:   113.50     for time:  283.0     to  284.0    
RIV   no.    1 value from time series:   101.00     for time:  283.0     to  284.0    
RIV   no.    2 value from time series:   101.00     for time:  283.0     to  284.0    
RIV   no.    3 value from time series:   111.50     for time:  283.0     to  284.0    
RIV   no.    4 value from time series:   111.50     for time:  283.0     to  284.0    
RIV   no.    5 value from time series:   115.10     for time:  283.0     to  284.0    
RIV   no.    6 value from time series:   115.10     for time:  283.0     to  284.0    
RIV   no.    7 value from time series:   104.00     for time:  283.0     to  284.0    
RIV   no.    8 value from time series:   104.00     for time:  283.0     to  284.0    
RIV   no.    9 value from time series:   113.50     for time:  283.0     to  284.0    
RIV   no.   10 value from time series:   113.50     for time:  283.0     to  284.0    

 NO OUTPUT CONTROL FOR STRESS PERIOD    7   TIME STEP  132
RIV   no.    1 value from time series:   101.00     for time:  284.0     to  285.0    
RIV   no.    2 value from time series:   101.00     for time:  284.0     to  285.0    
RIV   no.    3 value from time series:   111.50     for time:  284.0     to  285.0    
RIV   no.    4 value from time series:   111.50     for time:  284.0     to  285.0    
RIV   no.    5 value from time series:   115.10     for time:  284.0     to  285.0    
RIV   no.    6 value from time series:   115.10     for time:  284.0     to  285.0    
RIV   no.    7 value from time series:   104.00     for time:  284.0     to  285.0    
RIV   no.    8 value from time series:   104.00     for time:  284.0     to  285.0    
RIV   no.    9 value from time series:   113.50     for time:  284.0     to  285.0    
RIV   no.   10 value from time series:   113.50     for time:  284.0     to  285.0    
RIV   no.    1 value from time series:   101.00     for time:  284.0     to  285.0    
RIV   no.    2 value from time series:   101.00     for time:  284.0     to  285.0    
RIV   no.    3 value from time series:   111.50     for time:  284.0     to  285.0    
RIV   no.    4 value from time series:   111.50     for time:  284.0     to  285.0    
RIV   no.    5 value from time series:   115.10     for time:  284.0     to  285.0    
RIV   no.    6 value from time series:   115.10     for time:  284.0     to  285.0    
RIV   no.    7 value from time series:   104.00     for time:  284.0     to  285.0    
RIV   no.    8 value from time series:   104.00     for time:  284.0     to  285.0    
RIV   no.    9 value from time series:   113.50     for time:  284.0     to  285.0    
RIV   no.   10 value from time series:   113.50     for time:  284.0     to  285.0    

 NO OUTPUT CONTROL FOR STRESS PERIOD    7   TIME STEP  133
RIV   no.    1 value from time series:   101.00     for time:  285.0     to  286.0    
RIV   no.    2 value from time series:   101.00     for time:  285.0     to  286.0    
RIV   no.    3 value from time series:   111.50     for time:  285.0     to  286.0    
RIV   no.    4 value from time series:   111.50     for time:  285.0     to  286.0    
RIV   no.    5 value from time series:   115.10     for time:  285.0     to  286.0    
RIV   no.    6 value from time series:   115.10     for time:  285.0     to  286.0    
RIV   no.    7 value from time series:   104.00     for time:  285.0     to  286.0    
RIV   no.    8 value from time series:   104.00     for time:  285.0     to  286.0    
RIV   no.    9 value from time series:   113.50     for time:  285.0     to  286.0    
RIV   no.   10 value from time series:   113.50     for time:  285.0     to  286.0    
RIV   no.    1 value from time series:   101.00     for time:  285.0     to  286.0    
RIV   no.    2 value from time series:   101.00     for time:  285.0     to  286.0    
RIV   no.    3 value from time series:   111.50     for time:  285.0     to  286.0    
RIV   no.    4 value from time series:   111.50     for time:  285.0     to  286.0    
RIV   no.    5 value from time series:   115.10     for time:  285.0     to  286.0    
RIV   no.    6 value from time series:   115.10     for time:  285.0     to  286.0    
RIV   no.    7 value from time series:   104.00     for time:  285.0     to  286.0    
RIV   no.    8 value from time series:   104.00     for time:  285.0     to  286.0    
RIV   no.    9 value from time series:   113.50     for time:  285.0     to  286.0    
RIV   no.   10 value from time series:   113.50     for time:  285.0     to  286.0    

 NO OUTPUT CONTROL FOR STRESS PERIOD    7   TIME STEP  134
RIV   no.    1 value from time series:   101.00     for time:  286.0     to  287.0    
RIV   no.    2 value from time series:   101.00     for time:  286.0     to  287.0    
RIV   no.    3 value from time series:   111.50     for time:  286.0     to  287.0    
RIV   no.    4 value from time series:   111.50     for time:  286.0     to  287.0    
RIV   no.    5 value from time series:   115.10     for time:  286.0     to  287.0    
RIV   no.    6 value from time series:   115.10     for time:  286.0     to  287.0    
RIV   no.    7 value from time series:   104.00     for time:  286.0     to  287.0    
RIV   no.    8 value from time series:   104.00     for time:  286.0     to  287.0    
RIV   no.    9 value from time series:   113.50     for time:  286.0     to  287.0    
RIV   no.   10 value from time series:   113.50     for time:  286.0     to  287.0    
RIV   no.    1 value from time series:   101.00     for time:  286.0     to  287.0    
RIV   no.    2 value from time series:   101.00     for time:  286.0     to  287.0    
RIV   no.    3 value from time series:   111.50     for time:  286.0     to  287.0    
RIV   no.    4 value from time series:   111.50     for time:  286.0     to  287.0    
RIV   no.    5 value from time series:   115.10     for time:  286.0     to  287.0    
RIV   no.    6 value from time series:   115.10     for time:  286.0     to  287.0    
RIV   no.    7 value from time series:   104.00     for time:  286.0     to  287.0    
RIV   no.    8 value from time series:   104.00     for time:  286.0     to  287.0    
RIV   no.    9 value from time series:   113.50     for time:  286.0     to  287.0    
RIV   no.   10 value from time series:   113.50     for time:  286.0     to  287.0    

 NO OUTPUT CONTROL FOR STRESS PERIOD    7   TIME STEP  135
RIV   no.    1 value from time series:   101.00     for time:  287.0     to  288.0    
RIV   no.    2 value from time series:   101.00     for time:  287.0     to  288.0    
RIV   no.    3 value from time series:   111.50     for time:  287.0     to  288.0    
RIV   no.    4 value from time series:   111.50     for time:  287.0     to  288.0    
RIV   no.    5 value from time series:   115.10     for time:  287.0     to  288.0    
RIV   no.    6 value from time series:   115.10     for time:  287.0     to  288.0    
RIV   no.    7 value from time series:   104.00     for time:  287.0     to  288.0    
RIV   no.    8 value from time series:   104.00     for time:  287.0     to  288.0    
RIV   no.    9 value from time series:   113.50     for time:  287.0     to  288.0    
RIV   no.   10 value from time series:   113.50     for time:  287.0     to  288.0    
RIV   no.    1 value from time series:   101.00     for time:  287.0     to  288.0    
RIV   no.    2 value from time series:   101.00     for time:  287.0     to  288.0    
RIV   no.    3 value from time series:   111.50     for time:  287.0     to  288.0    
RIV   no.    4 value from time series:   111.50     for time:  287.0     to  288.0    
RIV   no.    5 value from time series:   115.10     for time:  287.0     to  288.0    
RIV   no.    6 value from time series:   115.10     for time:  287.0     to  288.0    
RIV   no.    7 value from time series:   104.00     for time:  287.0     to  288.0    
RIV   no.    8 value from time series:   104.00     for time:  287.0     to  288.0    
RIV   no.    9 value from time series:   113.50     for time:  287.0     to  288.0    
RIV   no.   10 value from time series:   113.50     for time:  287.0     to  288.0    

 NO OUTPUT CONTROL FOR STRESS PERIOD    7   TIME STEP  136
RIV   no.    1 value from time series:   101.00     for time:  288.0     to  289.0    
RIV   no.    2 value from time series:   101.00     for time:  288.0     to  289.0    
RIV   no.    3 value from time series:   111.50     for time:  288.0     to  289.0    
RIV   no.    4 value from time series:   111.50     for time:  288.0     to  289.0    
RIV   no.    5 value from time series:   115.10     for time:  288.0     to  289.0    
RIV   no.    6 value from time series:   115.10     for time:  288.0     to  289.0    
RIV   no.    7 value from time series:   104.00     for time:  288.0     to  289.0    
RIV   no.    8 value from time series:   104.00     for time:  288.0     to  289.0    
RIV   no.    9 value from time series:   113.50     for time:  288.0     to  289.0    
RIV   no.   10 value from time series:   113.50     for time:  288.0     to  289.0    
RIV   no.    1 value from time series:   101.00     for time:  288.0     to  289.0    
RIV   no.    2 value from time series:   101.00     for time:  288.0     to  289.0    
RIV   no.    3 value from time series:   111.50     for time:  288.0     to  289.0    
RIV   no.    4 value from time series:   111.50     for time:  288.0     to  289.0    
RIV   no.    5 value from time series:   115.10     for time:  288.0     to  289.0    
RIV   no.    6 value from time series:   115.10     for time:  288.0     to  289.0    
RIV   no.    7 value from time series:   104.00     for time:  288.0     to  289.0    
RIV   no.    8 value from time series:   104.00     for time:  288.0     to  289.0    
RIV   no.    9 value from time series:   113.50     for time:  288.0     to  289.0    
RIV   no.   10 value from time series:   113.50     for time:  288.0     to  289.0    

 NO OUTPUT CONTROL FOR STRESS PERIOD    7   TIME STEP  137
RIV   no.    1 value from time series:   101.00     for time:  289.0     to  290.0    
RIV   no.    2 value from time series:   101.00     for time:  289.0     to  290.0    
RIV   no.    3 value from time series:   111.50     for time:  289.0     to  290.0    
RIV   no.    4 value from time series:   111.50     for time:  289.0     to  290.0    
RIV   no.    5 value from time series:   115.10     for time:  289.0     to  290.0    
RIV   no.    6 value from time series:   115.10     for time:  289.0     to  290.0    
RIV   no.    7 value from time series:   104.00     for time:  289.0     to  290.0    
RIV   no.    8 value from time series:   104.00     for time:  289.0     to  290.0    
RIV   no.    9 value from time series:   113.50     for time:  289.0     to  290.0    
RIV   no.   10 value from time series:   113.50     for time:  289.0     to  290.0    
RIV   no.    1 value from time series:   101.00     for time:  289.0     to  290.0    
RIV   no.    2 value from time series:   101.00     for time:  289.0     to  290.0    
RIV   no.    3 value from time series:   111.50     for time:  289.0     to  290.0    
RIV   no.    4 value from time series:   111.50     for time:  289.0     to  290.0    
RIV   no.    5 value from time series:   115.10     for time:  289.0     to  290.0    
RIV   no.    6 value from time series:   115.10     for time:  289.0     to  290.0    
RIV   no.    7 value from time series:   104.00     for time:  289.0     to  290.0    
RIV   no.    8 value from time series:   104.00     for time:  289.0     to  290.0    
RIV   no.    9 value from time series:   113.50     for time:  289.0     to  290.0    
RIV   no.   10 value from time series:   113.50     for time:  289.0     to  290.0    

 NO OUTPUT CONTROL FOR STRESS PERIOD    7   TIME STEP  138
RIV   no.    1 value from time series:   101.00     for time:  290.0     to  291.0    
RIV   no.    2 value from time series:   101.00     for time:  290.0     to  291.0    
RIV   no.    3 value from time series:   111.50     for time:  290.0     to  291.0    
RIV   no.    4 value from time series:   111.50     for time:  290.0     to  291.0    
RIV   no.    5 value from time series:   115.10     for time:  290.0     to  291.0    
RIV   no.    6 value from time series:   115.10     for time:  290.0     to  291.0    
RIV   no.    7 value from time series:   104.00     for time:  290.0     to  291.0    
RIV   no.    8 value from time series:   104.00     for time:  290.0     to  291.0    
RIV   no.    9 value from time series:   113.50     for time:  290.0     to  291.0    
RIV   no.   10 value from time series:   113.50     for time:  290.0     to  291.0    
RIV   no.    1 value from time series:   101.00     for time:  290.0     to  291.0    
RIV   no.    2 value from time series:   101.00     for time:  290.0     to  291.0    
RIV   no.    3 value from time series:   111.50     for time:  290.0     to  291.0    
RIV   no.    4 value from time series:   111.50     for time:  290.0     to  291.0    
RIV   no.    5 value from time series:   115.10     for time:  290.0     to  291.0    
RIV   no.    6 value from time series:   115.10     for time:  290.0     to  291.0    
RIV   no.    7 value from time series:   104.00     for time:  290.0     to  291.0    
RIV   no.    8 value from time series:   104.00     for time:  290.0     to  291.0    
RIV   no.    9 value from time series:   113.50     for time:  290.0     to  291.0    
RIV   no.   10 value from time series:   113.50     for time:  290.0     to  291.0    

 NO OUTPUT CONTROL FOR STRESS PERIOD    7   TIME STEP  139
RIV   no.    1 value from time series:   101.00     for time:  291.0     to  292.0    
RIV   no.    2 value from time series:   101.00     for time:  291.0     to  292.0    
RIV   no.    3 value from time series:   111.50     for time:  291.0     to  292.0    
RIV   no.    4 value from time series:   111.50     for time:  291.0     to  292.0    
RIV   no.    5 value from time series:   115.10     for time:  291.0     to  292.0    
RIV   no.    6 value from time series:   115.10     for time:  291.0     to  292.0    
RIV   no.    7 value from time series:   104.00     for time:  291.0     to  292.0    
RIV   no.    8 value from time series:   104.00     for time:  291.0     to  292.0    
RIV   no.    9 value from time series:   113.50     for time:  291.0     to  292.0    
RIV   no.   10 value from time series:   113.50     for time:  291.0     to  292.0    
RIV   no.    1 value from time series:   101.00     for time:  291.0     to  292.0    
RIV   no.    2 value from time series:   101.00     for time:  291.0     to  292.0    
RIV   no.    3 value from time series:   111.50     for time:  291.0     to  292.0    
RIV   no.    4 value from time series:   111.50     for time:  291.0     to  292.0    
RIV   no.    5 value from time series:   115.10     for time:  291.0     to  292.0    
RIV   no.    6 value from time series:   115.10     for time:  291.0     to  292.0    
RIV   no.    7 value from time series:   104.00     for time:  291.0     to  292.0    
RIV   no.    8 value from time series:   104.00     for time:  291.0     to  292.0    
RIV   no.    9 value from time series:   113.50     for time:  291.0     to  292.0    
RIV   no.   10 value from time series:   113.50     for time:  291.0     to  292.0    

 NO OUTPUT CONTROL FOR STRESS PERIOD    7   TIME STEP  140
RIV   no.    1 value from time series:   101.00     for time:  292.0     to  293.0    
RIV   no.    2 value from time series:   101.00     for time:  292.0     to  293.0    
RIV   no.    3 value from time series:   111.50     for time:  292.0     to  293.0    
RIV   no.    4 value from time series:   111.50     for time:  292.0     to  293.0    
RIV   no.    5 value from time series:   115.10     for time:  292.0     to  293.0    
RIV   no.    6 value from time series:   115.10     for time:  292.0     to  293.0    
RIV   no.    7 value from time series:   104.00     for time:  292.0     to  293.0    
RIV   no.    8 value from time series:   104.00     for time:  292.0     to  293.0    
RIV   no.    9 value from time series:   113.50     for time:  292.0     to  293.0    
RIV   no.   10 value from time series:   113.50     for time:  292.0     to  293.0    
RIV   no.    1 value from time series:   101.00     for time:  292.0     to  293.0    
RIV   no.    2 value from time series:   101.00     for time:  292.0     to  293.0    
RIV   no.    3 value from time series:   111.50     for time:  292.0     to  293.0    
RIV   no.    4 value from time series:   111.50     for time:  292.0     to  293.0    
RIV   no.    5 value from time series:   115.10     for time:  292.0     to  293.0    
RIV   no.    6 value from time series:   115.10     for time:  292.0     to  293.0    
RIV   no.    7 value from time series:   104.00     for time:  292.0     to  293.0    
RIV   no.    8 value from time series:   104.00     for time:  292.0     to  293.0    
RIV   no.    9 value from time series:   113.50     for time:  292.0     to  293.0    
RIV   no.   10 value from time series:   113.50     for time:  292.0     to  293.0    

 NO OUTPUT CONTROL FOR STRESS PERIOD    7   TIME STEP  141
RIV   no.    1 value from time series:   101.00     for time:  293.0     to  294.0    
RIV   no.    2 value from time series:   101.00     for time:  293.0     to  294.0    
RIV   no.    3 value from time series:   111.50     for time:  293.0     to  294.0    
RIV   no.    4 value from time series:   111.50     for time:  293.0     to  294.0    
RIV   no.    5 value from time series:   115.10     for time:  293.0     to  294.0    
RIV   no.    6 value from time series:   115.10     for time:  293.0     to  294.0    
RIV   no.    7 value from time series:   104.00     for time:  293.0     to  294.0    
RIV   no.    8 value from time series:   104.00     for time:  293.0     to  294.0    
RIV   no.    9 value from time series:   113.50     for time:  293.0     to  294.0    
RIV   no.   10 value from time series:   113.50     for time:  293.0     to  294.0    
RIV   no.    1 value from time series:   101.00     for time:  293.0     to  294.0    
RIV   no.    2 value from time series:   101.00     for time:  293.0     to  294.0    
RIV   no.    3 value from time series:   111.50     for time:  293.0     to  294.0    
RIV   no.    4 value from time series:   111.50     for time:  293.0     to  294.0    
RIV   no.    5 value from time series:   115.10     for time:  293.0     to  294.0    
RIV   no.    6 value from time series:   115.10     for time:  293.0     to  294.0    
RIV   no.    7 value from time series:   104.00     for time:  293.0     to  294.0    
RIV   no.    8 value from time series:   104.00     for time:  293.0     to  294.0    
RIV   no.    9 value from time series:   113.50     for time:  293.0     to  294.0    
RIV   no.   10 value from time series:   113.50     for time:  293.0     to  294.0    

 NO OUTPUT CONTROL FOR STRESS PERIOD    7   TIME STEP  142
RIV   no.    1 value from time series:   101.00     for time:  294.0     to  295.0    
RIV   no.    2 value from time series:   101.00     for time:  294.0     to  295.0    
RIV   no.    3 value from time series:   111.50     for time:  294.0     to  295.0    
RIV   no.    4 value from time series:   111.50     for time:  294.0     to  295.0    
RIV   no.    5 value from time series:   115.10     for time:  294.0     to  295.0    
RIV   no.    6 value from time series:   115.10     for time:  294.0     to  295.0    
RIV   no.    7 value from time series:   104.00     for time:  294.0     to  295.0    
RIV   no.    8 value from time series:   104.00     for time:  294.0     to  295.0    
RIV   no.    9 value from time series:   113.50     for time:  294.0     to  295.0    
RIV   no.   10 value from time series:   113.50     for time:  294.0     to  295.0    
RIV   no.    1 value from time series:   101.00     for time:  294.0     to  295.0    
RIV   no.    2 value from time series:   101.00     for time:  294.0     to  295.0    
RIV   no.    3 value from time series:   111.50     for time:  294.0     to  295.0    
RIV   no.    4 value from time series:   111.50     for time:  294.0     to  295.0    
RIV   no.    5 value from time series:   115.10     for time:  294.0     to  295.0    
RIV   no.    6 value from time series:   115.10     for time:  294.0     to  295.0    
RIV   no.    7 value from time series:   104.00     for time:  294.0     to  295.0    
RIV   no.    8 value from time series:   104.00     for time:  294.0     to  295.0    
RIV   no.    9 value from time series:   113.50     for time:  294.0     to  295.0    
RIV   no.   10 value from time series:   113.50     for time:  294.0     to  295.0    

 NO OUTPUT CONTROL FOR STRESS PERIOD    7   TIME STEP  143
RIV   no.    1 value from time series:   101.00     for time:  295.0     to  296.0    
RIV   no.    2 value from time series:   101.00     for time:  295.0     to  296.0    
RIV   no.    3 value from time series:   111.50     for time:  295.0     to  296.0    
RIV   no.    4 value from time series:   111.50     for time:  295.0     to  296.0    
RIV   no.    5 value from time series:   115.10     for time:  295.0     to  296.0    
RIV   no.    6 value from time series:   115.10     for time:  295.0     to  296.0    
RIV   no.    7 value from time series:   104.00     for time:  295.0     to  296.0    
RIV   no.    8 value from time series:   104.00     for time:  295.0     to  296.0    
RIV   no.    9 value from time series:   113.50     for time:  295.0     to  296.0    
RIV   no.   10 value from time series:   113.50     for time:  295.0     to  296.0    
RIV   no.    1 value from time series:   101.00     for time:  295.0     to  296.0    
RIV   no.    2 value from time series:   101.00     for time:  295.0     to  296.0    
RIV   no.    3 value from time series:   111.50     for time:  295.0     to  296.0    
RIV   no.    4 value from time series:   111.50     for time:  295.0     to  296.0    
RIV   no.    5 value from time series:   115.10     for time:  295.0     to  296.0    
RIV   no.    6 value from time series:   115.10     for time:  295.0     to  296.0    
RIV   no.    7 value from time series:   104.00     for time:  295.0     to  296.0    
RIV   no.    8 value from time series:   104.00     for time:  295.0     to  296.0    
RIV   no.    9 value from time series:   113.50     for time:  295.0     to  296.0    
RIV   no.   10 value from time series:   113.50     for time:  295.0     to  296.0    

 NO OUTPUT CONTROL FOR STRESS PERIOD    7   TIME STEP  144
RIV   no.    1 value from time series:   101.00     for time:  296.0     to  297.0    
RIV   no.    2 value from time series:   101.00     for time:  296.0     to  297.0    
RIV   no.    3 value from time series:   111.50     for time:  296.0     to  297.0    
RIV   no.    4 value from time series:   111.50     for time:  296.0     to  297.0    
RIV   no.    5 value from time series:   115.10     for time:  296.0     to  297.0    
RIV   no.    6 value from time series:   115.10     for time:  296.0     to  297.0    
RIV   no.    7 value from time series:   104.00     for time:  296.0     to  297.0    
RIV   no.    8 value from time series:   104.00     for time:  296.0     to  297.0    
RIV   no.    9 value from time series:   113.50     for time:  296.0     to  297.0    
RIV   no.   10 value from time series:   113.50     for time:  296.0     to  297.0    
RIV   no.    1 value from time series:   101.00     for time:  296.0     to  297.0    
RIV   no.    2 value from time series:   101.00     for time:  296.0     to  297.0    
RIV   no.    3 value from time series:   111.50     for time:  296.0     to  297.0    
RIV   no.    4 value from time series:   111.50     for time:  296.0     to  297.0    
RIV   no.    5 value from time series:   115.10     for time:  296.0     to  297.0    
RIV   no.    6 value from time series:   115.10     for time:  296.0     to  297.0    
RIV   no.    7 value from time series:   104.00     for time:  296.0     to  297.0    
RIV   no.    8 value from time series:   104.00     for time:  296.0     to  297.0    
RIV   no.    9 value from time series:   113.50     for time:  296.0     to  297.0    
RIV   no.   10 value from time series:   113.50     for time:  296.0     to  297.0    

 NO OUTPUT CONTROL FOR STRESS PERIOD    7   TIME STEP  145
RIV   no.    1 value from time series:   101.00     for time:  297.0     to  298.0    
RIV   no.    2 value from time series:   101.00     for time:  297.0     to  298.0    
RIV   no.    3 value from time series:   111.50     for time:  297.0     to  298.0    
RIV   no.    4 value from time series:   111.50     for time:  297.0     to  298.0    
RIV   no.    5 value from time series:   115.10     for time:  297.0     to  298.0    
RIV   no.    6 value from time series:   115.10     for time:  297.0     to  298.0    
RIV   no.    7 value from time series:   104.00     for time:  297.0     to  298.0    
RIV   no.    8 value from time series:   104.00     for time:  297.0     to  298.0    
RIV   no.    9 value from time series:   113.50     for time:  297.0     to  298.0    
RIV   no.   10 value from time series:   113.50     for time:  297.0     to  298.0    
RIV   no.    1 value from time series:   101.00     for time:  297.0     to  298.0    
RIV   no.    2 value from time series:   101.00     for time:  297.0     to  298.0    
RIV   no.    3 value from time series:   111.50     for time:  297.0     to  298.0    
RIV   no.    4 value from time series:   111.50     for time:  297.0     to  298.0    
RIV   no.    5 value from time series:   115.10     for time:  297.0     to  298.0    
RIV   no.    6 value from time series:   115.10     for time:  297.0     to  298.0    
RIV   no.    7 value from time series:   104.00     for time:  297.0     to  298.0    
RIV   no.    8 value from time series:   104.00     for time:  297.0     to  298.0    
RIV   no.    9 value from time series:   113.50     for time:  297.0     to  298.0    
RIV   no.   10 value from time series:   113.50     for time:  297.0     to  298.0    

 NO OUTPUT CONTROL FOR STRESS PERIOD    7   TIME STEP  146
RIV   no.    1 value from time series:   101.00     for time:  298.0     to  299.0    
RIV   no.    2 value from time series:   101.00     for time:  298.0     to  299.0    
RIV   no.    3 value from time series:   111.50     for time:  298.0     to  299.0    
RIV   no.    4 value from time series:   111.50     for time:  298.0     to  299.0    
RIV   no.    5 value from time series:   115.10     for time:  298.0     to  299.0    
RIV   no.    6 value from time series:   115.10     for time:  298.0     to  299.0    
RIV   no.    7 value from time series:   104.00     for time:  298.0     to  299.0    
RIV   no.    8 value from time series:   104.00     for time:  298.0     to  299.0    
RIV   no.    9 value from time series:   113.50     for time:  298.0     to  299.0    
RIV   no.   10 value from time series:   113.50     for time:  298.0     to  299.0    
RIV   no.    1 value from time series:   101.00     for time:  298.0     to  299.0    
RIV   no.    2 value from time series:   101.00     for time:  298.0     to  299.0    
RIV   no.    3 value from time series:   111.50     for time:  298.0     to  299.0    
RIV   no.    4 value from time series:   111.50     for time:  298.0     to  299.0    
RIV   no.    5 value from time series:   115.10     for time:  298.0     to  299.0    
RIV   no.    6 value from time series:   115.10     for time:  298.0     to  299.0    
RIV   no.    7 value from time series:   104.00     for time:  298.0     to  299.0    
RIV   no.    8 value from time series:   104.00     for time:  298.0     to  299.0    
RIV   no.    9 value from time series:   113.50     for time:  298.0     to  299.0    
RIV   no.   10 value from time series:   113.50     for time:  298.0     to  299.0    

 NO OUTPUT CONTROL FOR STRESS PERIOD    7   TIME STEP  147
RIV   no.    1 value from time series:   101.00     for time:  299.0     to  300.0    
RIV   no.    2 value from time series:   101.00     for time:  299.0     to  300.0    
RIV   no.    3 value from time series:   111.50     for time:  299.0     to  300.0    
RIV   no.    4 value from time series:   111.50     for time:  299.0     to  300.0    
RIV   no.    5 value from time series:   115.10     for time:  299.0     to  300.0    
RIV   no.    6 value from time series:   115.10     for time:  299.0     to  300.0    
RIV   no.    7 value from time series:   104.00     for time:  299.0     to  300.0    
RIV   no.    8 value from time series:   104.00     for time:  299.0     to  300.0    
RIV   no.    9 value from time series:   113.50     for time:  299.0     to  300.0    
RIV   no.   10 value from time series:   113.50     for time:  299.0     to  300.0    
RIV   no.    1 value from time series:   101.00     for time:  299.0     to  300.0    
RIV   no.    2 value from time series:   101.00     for time:  299.0     to  300.0    
RIV   no.    3 value from time series:   111.50     for time:  299.0     to  300.0    
RIV   no.    4 value from time series:   111.50     for time:  299.0     to  300.0    
RIV   no.    5 value from time series:   115.10     for time:  299.0     to  300.0    
RIV   no.    6 value from time series:   115.10     for time:  299.0     to  300.0    
RIV   no.    7 value from time series:   104.00     for time:  299.0     to  300.0    
RIV   no.    8 value from time series:   104.00     for time:  299.0     to  300.0    
RIV   no.    9 value from time series:   113.50     for time:  299.0     to  300.0    
RIV   no.   10 value from time series:   113.50     for time:  299.0     to  300.0    

 NO OUTPUT CONTROL FOR STRESS PERIOD    7   TIME STEP  148
RIV   no.    1 value from time series:   101.00     for time:  300.0     to  301.0    
RIV   no.    2 value from time series:   101.00     for time:  300.0     to  301.0    
RIV   no.    3 value from time series:   111.50     for time:  300.0     to  301.0    
RIV   no.    4 value from time series:   111.50     for time:  300.0     to  301.0    
RIV   no.    5 value from time series:   115.10     for time:  300.0     to  301.0    
RIV   no.    6 value from time series:   115.10     for time:  300.0     to  301.0    
RIV   no.    7 value from time series:   104.00     for time:  300.0     to  301.0    
RIV   no.    8 value from time series:   104.00     for time:  300.0     to  301.0    
RIV   no.    9 value from time series:   113.50     for time:  300.0     to  301.0    
RIV   no.   10 value from time series:   113.50     for time:  300.0     to  301.0    

 RchArraySeries           =  1.500000E-03 FOR LAYER   1
RIV   no.    1 value from time series:   101.00     for time:  300.0     to  301.0    
RIV   no.    2 value from time series:   101.00     for time:  300.0     to  301.0    
RIV   no.    3 value from time series:   111.50     for time:  300.0     to  301.0    
RIV   no.    4 value from time series:   111.50     for time:  300.0     to  301.0    
RIV   no.    5 value from time series:   115.10     for time:  300.0     to  301.0    
RIV   no.    6 value from time series:   115.10     for time:  300.0     to  301.0    
RIV   no.    7 value from time series:   104.00     for time:  300.0     to  301.0    
RIV   no.    8 value from time series:   104.00     for time:  300.0     to  301.0    
RIV   no.    9 value from time series:   113.50     for time:  300.0     to  301.0    
RIV   no.   10 value from time series:   113.50     for time:  300.0     to  301.0    

 NO OUTPUT CONTROL FOR STRESS PERIOD    7   TIME STEP  149
RIV   no.    1 value from time series:   101.00     for time:  301.0     to  302.0    
RIV   no.    2 value from time series:   101.00     for time:  301.0     to  302.0    
RIV   no.    3 value from time series:   111.50     for time:  301.0     to  302.0    
RIV   no.    4 value from time series:   111.50     for time:  301.0     to  302.0    
RIV   no.    5 value from time series:   115.10     for time:  301.0     to  302.0    
RIV   no.    6 value from time series:   115.10     for time:  301.0     to  302.0    
RIV   no.    7 value from time series:   104.00     for time:  301.0     to  302.0    
RIV   no.    8 value from time series:   104.00     for time:  301.0     to  302.0    
RIV   no.    9 value from time series:   113.50     for time:  301.0     to  302.0    
RIV   no.   10 value from time series:   113.50     for time:  301.0     to  302.0    
RIV   no.    1 value from time series:   101.00     for time:  301.0     to  302.0    
RIV   no.    2 value from time series:   101.00     for time:  301.0     to  302.0    
RIV   no.    3 value from time series:   111.50     for time:  301.0     to  302.0    
RIV   no.    4 value from time series:   111.50     for time:  301.0     to  302.0    
RIV   no.    5 value from time series:   115.10     for time:  301.0     to  302.0    
RIV   no.    6 value from time series:   115.10     for time:  301.0     to  302.0    
RIV   no.    7 value from time series:   104.00     for time:  301.0     to  302.0    
RIV   no.    8 value from time series:   104.00     for time:  301.0     to  302.0    
RIV   no.    9 value from time series:   113.50     for time:  301.0     to  302.0    
RIV   no.   10 value from time series:   113.50     for time:  301.0     to  302.0    

 NO OUTPUT CONTROL FOR STRESS PERIOD    7   TIME STEP  150
RIV   no.    1 value from time series:   101.00     for time:  302.0     to  303.0    
RIV   no.    2 value from time series:   101.00     for time:  302.0     to  303.0    
RIV   no.    3 value from time series:   111.50     for time:  302.0     to  303.0    
RIV   no.    4 value from time series:   111.50     for time:  302.0     to  303.0    
RIV   no.    5 value from time series:   115.10     for time:  302.0     to  303.0    
RIV   no.    6 value from time series:   115.10     for time:  302.0     to  303.0    
RIV   no.    7 value from time series:   104.00     for time:  302.0     to  303.0    
RIV   no.    8 value from time series:   104.00     for time:  302.0     to  303.0    
RIV   no.    9 value from time series:   113.50     for time:  302.0     to  303.0    
RIV   no.   10 value from time series:   113.50     for time:  302.0     to  303.0    
RIV   no.    1 value from time series:   101.00     for time:  302.0     to  303.0    
RIV   no.    2 value from time series:   101.00     for time:  302.0     to  303.0    
RIV   no.    3 value from time series:   111.50     for time:  302.0     to  303.0    
RIV   no.    4 value from time series:   111.50     for time:  302.0     to  303.0    
RIV   no.    5 value from time series:   115.10     for time:  302.0     to  303.0    
RIV   no.    6 value from time series:   115.10     for time:  302.0     to  303.0    
RIV   no.    7 value from time series:   104.00     for time:  302.0     to  303.0    
RIV   no.    8 value from time series:   104.00     for time:  302.0     to  303.0    
RIV   no.    9 value from time series:   113.50     for time:  302.0     to  303.0    
RIV   no.   10 value from time series:   113.50     for time:  302.0     to  303.0    

 NO OUTPUT CONTROL FOR STRESS PERIOD    7   TIME STEP  151
RIV   no.    1 value from time series:   101.00     for time:  303.0     to  304.0    
RIV   no.    2 value from time series:   101.00     for time:  303.0     to  304.0    
RIV   no.    3 value from time series:   111.50     for time:  303.0     to  304.0    
RIV   no.    4 value from time series:   111.50     for time:  303.0     to  304.0    
RIV   no.    5 value from time series:   115.10     for time:  303.0     to  304.0    
RIV   no.    6 value from time series:   115.10     for time:  303.0     to  304.0    
RIV   no.    7 value from time series:   104.00     for time:  303.0     to  304.0    
RIV   no.    8 value from time series:   104.00     for time:  303.0     to  304.0    
RIV   no.    9 value from time series:   113.50     for time:  303.0     to  304.0    
RIV   no.   10 value from time series:   113.50     for time:  303.0     to  304.0    
RIV   no.    1 value from time series:   101.00     for time:  303.0     to  304.0    
RIV   no.    2 value from time series:   101.00     for time:  303.0     to  304.0    
RIV   no.    3 value from time series:   111.50     for time:  303.0     to  304.0    
RIV   no.    4 value from time series:   111.50     for time:  303.0     to  304.0    
RIV   no.    5 value from time series:   115.10     for time:  303.0     to  304.0    
RIV   no.    6 value from time series:   115.10     for time:  303.0     to  304.0    
RIV   no.    7 value from time series:   104.00     for time:  303.0     to  304.0    
RIV   no.    8 value from time series:   104.00     for time:  303.0     to  304.0    
RIV   no.    9 value from time series:   113.50     for time:  303.0     to  304.0    
RIV   no.   10 value from time series:   113.50     for time:  303.0     to  304.0    

 NO OUTPUT CONTROL FOR STRESS PERIOD    7   TIME STEP  152
RIV   no.    1 value from time series:   101.00     for time:  304.0     to  305.0    
RIV   no.    2 value from time series:   101.00     for time:  304.0     to  305.0    
RIV   no.    3 value from time series:   111.50     for time:  304.0     to  305.0    
RIV   no.    4 value from time series:   111.50     for time:  304.0     to  305.0    
RIV   no.    5 value from time series:   115.10     for time:  304.0     to  305.0    
RIV   no.    6 value from time series:   115.10     for time:  304.0     to  305.0    
RIV   no.    7 value from time series:   104.00     for time:  304.0     to  305.0    
RIV   no.    8 value from time series:   104.00     for time:  304.0     to  305.0    
RIV   no.    9 value from time series:   113.50     for time:  304.0     to  305.0    
RIV   no.   10 value from time series:   113.50     for time:  304.0     to  305.0    
RIV   no.    1 value from time series:   101.00     for time:  304.0     to  305.0    
RIV   no.    2 value from time series:   101.00     for time:  304.0     to  305.0    
RIV   no.    3 value from time series:   111.50     for time:  304.0     to  305.0    
RIV   no.    4 value from time series:   111.50     for time:  304.0     to  305.0    
RIV   no.    5 value from time series:   115.10     for time:  304.0     to  305.0    
RIV   no.    6 value from time series:   115.10     for time:  304.0     to  305.0    
RIV   no.    7 value from time series:   104.00     for time:  304.0     to  305.0    
RIV   no.    8 value from time series:   104.00     for time:  304.0     to  305.0    
RIV   no.    9 value from time series:   113.50     for time:  304.0     to  305.0    
RIV   no.   10 value from time series:   113.50     for time:  304.0     to  305.0    

 OUTPUT CONTROL FOR STRESS PERIOD    7   TIME STEP  153
    PRINT BUDGET
    PRINT HEAD
    PRINT HEAD FOR ALL LAYERS
    SAVE BUDGET
    SAVE HEAD
    SAVE HEAD FOR ALL LAYERS
 UBDSV1 SAVING          STORAGE ON UNIT   1016 AT TIME STEP    153, STRESS PERIOD      7
 UBDSV1 SAVING FLOW RIGHT FACE  ON UNIT   1016 AT TIME STEP    153, STRESS PERIOD      7
 UBDSV1 SAVING FLOW FRONT FACE  ON UNIT   1016 AT TIME STEP    153, STRESS PERIOD      7
 UBDSV1 SAVING FLOW LOWER FACE  ON UNIT   1016 AT TIME STEP    153, STRESS PERIOD      7
 UBDSV4 SAVING WELLS NEAR RIVER ON UNIT   1016 AT TIME STEP    153, STRESS PERIOD      7
 UBDSV4 SAVING RIVER            ON UNIT   1016 AT TIME STEP    153, STRESS PERIOD      7

 RIVER              PERIOD  7   STEP153
 BOUNDARY      1   LAYER   1   ROW     1   COL    15   RATE    -5219.16    
 BOUNDARY      2   LAYER   1   ROW     2   COL    15   RATE    -6348.64      RIV2
 BOUNDARY      3   LAYER   1   ROW     3   COL    15   RATE    -2606.96      RIV3
 BOUNDARY      4   LAYER   1   ROW     4   COL    15   RATE    -4073.74    
 BOUNDARY      5   LAYER   1   ROW     5   COL    15   RATE    -2706.65    
 BOUNDARY      6   LAYER   1   ROW     6   COL    15   RATE    -2052.83    
 BOUNDARY      7   LAYER   1   ROW     7   COL    15   RATE    -6550.90      RIVX
 BOUNDARY      8   LAYER   1   ROW     8   COL    15   RATE    -6405.29      RIVX
 BOUNDARY      9   LAYER   1   ROW     9   COL    15   RATE    -2610.75      RIVX
 BOUNDARY     10   LAYER   1   ROW    10   COL    15   RATE    -3521.90    

 GHB LAKES          PERIOD  7   STEP153
 BOUNDARY      1   LAYER   1   ROW     3   COL     1   RATE    -15771.9    
 BOUNDARY      2   LAYER   1   ROW     7   COL     1   RATE    -2859.04      GHB2_UPPER
 BOUNDARY      3   LAYER   1   ROW     7   COL     1   RATE    -13600.0      GHB2_LOWER
 UBDSV4 SAVING RECHARGE         ON UNIT   1016 AT TIME STEP    153, STRESS PERIOD      7

 RECHARGE           PERIOD  7   STEP153
 BOUNDARY      1   LAYER   1   ROW     1   COL     1   RATE     587.500    
 BOUNDARY      2   LAYER   1   ROW     1   COL     2   RATE     587.500    
 BOUNDARY      3   LAYER   1   ROW     1   COL     3   RATE     587.500    
 BOUNDARY      4   LAYER   1   ROW     1   COL     4   RATE     587.500    
 BOUNDARY      5   LAYER   1   ROW     1   COL     5   RATE     587.500    
 BOUNDARY      6   LAYER   1   ROW     1   COL     6   RATE     587.500    
 BOUNDARY      7   LAYER   1   ROW     1   COL     7   RATE     587.500    
 BOUNDARY      8   LAYER   1   ROW     1   COL     8   RATE     587.500    
 BOUNDARY      9   LAYER   1   ROW     1   COL     9   RATE     587.500    
 BOUNDARY     10   LAYER   1   ROW     1   COL    10   RATE     587.500    
 BOUNDARY     11   LAYER   1   ROW     1   COL    11   RATE     587.500    
 BOUNDARY     12   LAYER   1   ROW     1   COL    12   RATE     587.500    
 BOUNDARY     13   LAYER   1   ROW     1   COL    13   RATE     587.500    
 BOUNDARY     14   LAYER   1   ROW     1   COL    14   RATE     587.500    
 BOUNDARY     15   LAYER   1   ROW     1   COL    15   RATE     587.500    
 BOUNDARY     16   LAYER   1   ROW     2   COL     1   RATE     587.500    
 BOUNDARY     17   LAYER   1   ROW     2   COL     2   RATE     587.500    
 BOUNDARY     18   LAYER   1   ROW     2   COL     3   RATE     587.500    
 BOUNDARY     19   LAYER   1   ROW     2   COL     4   RATE     587.500    
 BOUNDARY     20   LAYER   1   ROW     2   COL     5   RATE     587.500    
 BOUNDARY     21   LAYER   1   ROW     2   COL     6   RATE     587.500    
 BOUNDARY     22   LAYER   1   ROW     2   COL     7   RATE     587.500    
 BOUNDARY     23   LAYER   1   ROW     2   COL     8   RATE     587.500    
 BOUNDARY     24   LAYER   1   ROW     2   COL     9   RATE     587.500    
 BOUNDARY     25   LAYER   1   ROW     2   COL    10   RATE     587.500    
 BOUNDARY     26   LAYER   1   ROW     2   COL    11   RATE     587.500    
 BOUNDARY     27   LAYER   1   ROW     2   COL    12   RATE     587.500    
 BOUNDARY     28   LAYER   1   ROW     2   COL    13   RATE     587.500    
 BOUNDARY     29   LAYER   1   ROW     2   COL    14   RATE     587.500    
 BOUNDARY     30   LAYER   1   ROW     2   COL    15   RATE     587.500    
 BOUNDARY     31   LAYER   1   ROW     3   COL     1   RATE     587.500    
 BOUNDARY     32   LAYER   1   ROW     3   COL     2   RATE     587.500    
 BOUNDARY     33   LAYER   1   ROW     3   COL     3   RATE     587.500    
 BOUNDARY     34   LAYER   1   ROW     3   COL     4   RATE     587.500    
 BOUNDARY     35   LAYER   1   ROW     3   COL     5   RATE     587.500    
 BOUNDARY     36   LAYER   1   ROW     3   COL     6   RATE     587.500    
 BOUNDARY     37   LAYER   1   ROW     3   COL     7   RATE     587.500    
 BOUNDARY     38   LAYER   1   ROW     3   COL     8   RATE     587.500    
 BOUNDARY     39   LAYER   1   ROW     3   COL     9   RATE     587.500    
 BOUNDARY     40   LAYER   1   ROW     3   COL    10   RATE     587.500    
 BOUNDARY     41   LAYER   1   ROW     3   COL    11   RATE     587.500    
 BOUNDARY     42   LAYER   1   ROW     3   COL    12   RATE     587.500    
 BOUNDARY     43   LAYER   1   ROW     3   COL    13   RATE     587.500    
 BOUNDARY     44   LAYER   1   ROW     3   COL    14   RATE     587.500    
 BOUNDARY     45   LAYER   1   ROW     3   COL    15   RATE     587.500    
 BOUNDARY     46   LAYER   1   ROW     4   COL     1   RATE     587.500    
 BOUNDARY     47   LAYER   1   ROW     4   COL     2   RATE     587.500    
 BOUNDARY     48   LAYER   1   ROW     4   COL     3   RATE     587.500    
 BOUNDARY     49   LAYER   1   ROW     4   COL     4   RATE     587.500    
 BOUNDARY     50   LAYER   1   ROW     4   COL     5   RATE     587.500    
 BOUNDARY     51   LAYER   1   ROW     4   COL     6   RATE     587.500    
 BOUNDARY     52   LAYER   1   ROW     4   COL     7   RATE     587.500    
 BOUNDARY     53   LAYER   1   ROW     4   COL     8   RATE     587.500    
 BOUNDARY     54   LAYER   1   ROW     4   COL     9   RATE     587.500    
 BOUNDARY     55   LAYER   1   ROW     4   COL    10   RATE     587.500    
 BOUNDARY     56   LAYER   1   ROW     4   COL    11   RATE     587.500    
 BOUNDARY     57   LAYER   1   ROW     4   COL    12   RATE     587.500    
 BOUNDARY     58   LAYER   1   ROW     4   COL    13   RATE     587.500    
 BOUNDARY     59   LAYER   1   ROW     4   COL    14   RATE     587.500    
 BOUNDARY     60   LAYER   1   ROW     4   COL    15   RATE     587.500    
 BOUNDARY     61   LAYER   1   ROW     5   COL     1   RATE     587.500    
 BOUNDARY     62   LAYER   1   ROW     5   COL     2   RATE     587.500    
 BOUNDARY     63   LAYER   1   ROW     5   COL     3   RATE     587.500    
 BOUNDARY     64   LAYER   1   ROW     5   COL     4   RATE     587.500    
 BOUNDARY     65   LAYER   1   ROW     5   COL     5   RATE     587.500    
 BOUNDARY     66   LAYER   1   ROW     5   COL     6   RATE     587.500    
 BOUNDARY     67   LAYER   1   ROW     5   COL     7   RATE     587.500    
 BOUNDARY     68   LAYER   1   ROW     5   COL     8   RATE     587.500    
 BOUNDARY     69   LAYER   1   ROW     5   COL     9   RATE     587.500    
 BOUNDARY     70   LAYER   1   ROW     5   COL    10   RATE     587.500    
 BOUNDARY     71   LAYER   1   ROW     5   COL    11   RATE     587.500    
 BOUNDARY     72   LAYER   1   ROW     5   COL    12   RATE     587.500    
 BOUNDARY     73   LAYER   1   ROW     5   COL    13   RATE     587.500    
 BOUNDARY     74   LAYER   1   ROW     5   COL    14   RATE     587.500    
 BOUNDARY     75   LAYER   1   ROW     5   COL    15   RATE     587.500    
 BOUNDARY     76   LAYER   1   ROW     6   COL     1   RATE     587.500    
 BOUNDARY     77   LAYER   1   ROW     6   COL     2   RATE     587.500    
 BOUNDARY     78   LAYER   1   ROW     6   COL     3   RATE     587.500    
 BOUNDARY     79   LAYER   1   ROW     6   COL     4   RATE     587.500    
 BOUNDARY     80   LAYER   1   ROW     6   COL     5   RATE     587.500    
 BOUNDARY     81   LAYER   1   ROW     6   COL     6   RATE     587.500    
 BOUNDARY     82   LAYER   1   ROW     6   COL     7   RATE     587.500    
 BOUNDARY     83   LAYER   1   ROW     6   COL     8   RATE     587.500    
 BOUNDARY     84   LAYER   1   ROW     6   COL     9   RATE     587.500    
 BOUNDARY     85   LAYER   1   ROW     6   COL    10   RATE     587.500    
 BOUNDARY     86   LAYER   1   ROW     6   COL    11   RATE     587.500    
 BOUNDARY     87   LAYER   1   ROW     6   COL    12   RATE     587.500    
 BOUNDARY     88   LAYER   1   ROW     6   COL    13   RATE     587.500    
 BOUNDARY     89   LAYER   1   ROW     6   COL    14   RATE     587.500    
 BOUNDARY     90   LAYER   1   ROW     6   COL    15   RATE     587.500    
 BOUNDARY     91   LAYER   1   ROW     7   COL     1   RATE     587.500    
 BOUNDARY     92   LAYER   1   ROW     7   COL     2   RATE     587.500    
 BOUNDARY     93   LAYER   1   ROW     7   COL     3   RATE     587.500    
 BOUNDARY     94   LAYER   1   ROW     7   COL     4   RATE     587.500    
 BOUNDARY     95   LAYER   1   ROW     7   COL     5   RATE     587.500    
 BOUNDARY     96   LAYER   1   ROW     7   COL     6   RATE     587.500    
 BOUNDARY     97   LAYER   1   ROW     7   COL     7   RATE     587.500    
 BOUNDARY     98   LAYER   1   ROW     7   COL     8   RATE     587.500    
 BOUNDARY     99   LAYER   1   ROW     7   COL     9   RATE     587.500    
 BOUNDARY    100   LAYER   1   ROW     7   COL    10   RATE     587.500    
 BOUNDARY    101   LAYER   1   ROW     7   COL    11   RATE     587.500    
 BOUNDARY    102   LAYER   1   ROW     7   COL    12   RATE     587.500    
 BOUNDARY    103   LAYER   1   ROW     7   COL    13   RATE     587.500    
 BOUNDARY    104   LAYER   1   ROW     7   COL    14   RATE     587.500    
 BOUNDARY    105   LAYER   1   ROW     7   COL    15   RATE     587.500    
 BOUNDARY    106   LAYER   1   ROW     8   COL     1   RATE     587.500    
 BOUNDARY    107   LAYER   1   ROW     8   COL     2   RATE     587.500    
 BOUNDARY    108   LAYER   1   ROW     8   COL     3   RATE     587.500    
 BOUNDARY    109   LAYER   1   ROW     8   COL     4   RATE     587.500    
 BOUNDARY    110   LAYER   1   ROW     8   COL     5   RATE     587.500    
 BOUNDARY    111   LAYER   1   ROW     8   COL     6   RATE     587.500    
 BOUNDARY    112   LAYER   1   ROW     8   COL     7   RATE     587.500    
 BOUNDARY    113   LAYER   1   ROW     8   COL     8   RATE     587.500    
 BOUNDARY    114   LAYER   1   ROW     8   COL     9   RATE     587.500    
 BOUNDARY    115   LAYER   1   ROW     8   COL    10   RATE     587.500    
 BOUNDARY    116   LAYER   1   ROW     8   COL    11   RATE     587.500    
 BOUNDARY    117   LAYER   1   ROW     8   COL    12   RATE     587.500    
 BOUNDARY    118   LAYER   1   ROW     8   COL    13   RATE     587.500    
 BOUNDARY    119   LAYER   1   ROW     8   COL    14   RATE     587.500    
 BOUNDARY    120   LAYER   1   ROW     8   COL    15   RATE     587.500    
 BOUNDARY    121   LAYER   1   ROW     9   COL     1   RATE     587.500    
 BOUNDARY    122   LAYER   1   ROW     9   COL     2   RATE     587.500    
 BOUNDARY    123   LAYER   1   ROW     9   COL     3   RATE     587.500    
 BOUNDARY    124   LAYER   1   ROW     9   COL     4   RATE     587.500    
 BOUNDARY    125   LAYER   1   ROW     9   COL     5   RATE     587.500    
 BOUNDARY    126   LAYER   1   ROW     9   COL     6   RATE     587.500    
 BOUNDARY    127   LAYER   1   ROW     9   COL     7   RATE     587.500    
 BOUNDARY    128   LAYER   1   ROW     9   COL     8   RATE     587.500    
 BOUNDARY    129   LAYER   1   ROW     9   COL     9   RATE     587.500    
 BOUNDARY    130   LAYER   1   ROW     9   COL    10   RATE     587.500    
 BOUNDARY    131   LAYER   1   ROW     9   COL    11   RATE     587.500    
 BOUNDARY    132   LAYER   1   ROW     9   COL    12   RATE     587.500    
 BOUNDARY    133   LAYER   1   ROW     9   COL    13   RATE     587.500    
 BOUNDARY    134   LAYER   1   ROW     9   COL    14   RATE     587.500    
 BOUNDARY    135   LAYER   1   ROW     9   COL    15   RATE     587.500    
 BOUNDARY    136   LAYER   1   ROW    10   COL     1   RATE     587.500    
 BOUNDARY    137   LAYER   1   ROW    10   COL     2   RATE     587.500    
 BOUNDARY    138   LAYER   1   ROW    10   COL     3   RATE     587.500    
 BOUNDARY    139   LAYER   1   ROW    10   COL     4   RATE     587.500    
 BOUNDARY    140   LAYER   1   ROW    10   COL     5   RATE     587.500    
 BOUNDARY    141   LAYER   1   ROW    10   COL     6   RATE     587.500    
 BOUNDARY    142   LAYER   1   ROW    10   COL     7   RATE     587.500    
 BOUNDARY    143   LAYER   1   ROW    10   COL     8   RATE     587.500    
 BOUNDARY    144   LAYER   1   ROW    10   COL     9   RATE     587.500    
 BOUNDARY    145   LAYER   1   ROW    10   COL    10   RATE     587.500    
 BOUNDARY    146   LAYER   1   ROW    10   COL    11   RATE     587.500    
 BOUNDARY    147   LAYER   1   ROW    10   COL    12   RATE     587.500    
 BOUNDARY    148   LAYER   1   ROW    10   COL    13   RATE     587.500    
 BOUNDARY    149   LAYER   1   ROW    10   COL    14   RATE     587.500    
 BOUNDARY    150   LAYER   1   ROW    10   COL    15   RATE     587.500    
 UBDSV4 SAVING ET SEGS          ON UNIT   1016 AT TIME STEP    153, STRESS PERIOD      7

 ET SEGS            PERIOD  7   STEP153
 BOUNDARY      1   LAYER   1   ROW     1   COL     1   RATE    -6.77100    
 BOUNDARY      2   LAYER   1   ROW     1   COL     2   RATE    -22.6655    
 BOUNDARY      3   LAYER   1   ROW     1   COL     3   RATE   -100.0000    
 BOUNDARY      4   LAYER   1   ROW     1   COL     4   RATE   -100.0000    
 BOUNDARY      5   LAYER   1   ROW     1   COL     5   RATE   -100.0000    
 BOUNDARY      6   LAYER   1   ROW     1   COL     6   RATE   -100.0000    
 BOUNDARY      7   LAYER   1   ROW     1   COL     7   RATE   -100.0000    
 BOUNDARY      8   LAYER   1   ROW     1   COL     8   RATE   -100.0000    
 BOUNDARY      9   LAYER   1   ROW     1   COL     9   RATE   -100.0000    
 BOUNDARY     10   LAYER   1   ROW     1   COL    10   RATE   -100.0000    
 BOUNDARY     11   LAYER   1   ROW     1   COL    11   RATE   -100.0000    
 BOUNDARY     12   LAYER   1   ROW     1   COL    12   RATE    -47.7657    
 BOUNDARY     13   LAYER   1   ROW     1   COL    13   RATE    -3.66509    
 BOUNDARY     14   LAYER   1   ROW     1   COL    14   RATE     0.00000    
 BOUNDARY     15   LAYER   1   ROW     1   COL    15   RATE     0.00000    
 BOUNDARY     16   LAYER   1   ROW     2   COL     1   RATE     0.00000    
 BOUNDARY     17   LAYER   1   ROW     2   COL     2   RATE    -9.04732    
 BOUNDARY     18   LAYER   1   ROW     2   COL     3   RATE   -100.0000    
 BOUNDARY     19   LAYER   1   ROW     2   COL     4   RATE   -100.0000    
 BOUNDARY     20   LAYER   1   ROW     2   COL     5   RATE   -100.0000    
 BOUNDARY     21   LAYER   1   ROW     2   COL     6   RATE   -100.0000    
 BOUNDARY     22   LAYER   1   ROW     2   COL     7   RATE   -100.0000    
 BOUNDARY     23   LAYER   1   ROW     2   COL     8   RATE   -100.0000    
 BOUNDARY     24   LAYER   1   ROW     2   COL     9   RATE   -100.0000    
 BOUNDARY     25   LAYER   1   ROW     2   COL    10   RATE   -100.0000    
 BOUNDARY     26   LAYER   1   ROW     2   COL    11   RATE   -100.0000    
 BOUNDARY     27   LAYER   1   ROW     2   COL    12   RATE    -56.4583    
 BOUNDARY     28   LAYER   1   ROW     2   COL    13   RATE    -4.63048    
 BOUNDARY     29   LAYER   1   ROW     2   COL    14   RATE     0.00000    
 BOUNDARY     30   LAYER   1   ROW     2   COL    15   RATE     0.00000    
 BOUNDARY     31   LAYER   1   ROW     3   COL     1   RATE     0.00000    
 BOUNDARY     32   LAYER   1   ROW     3   COL     2   RATE    -1.78013    
 BOUNDARY     33   LAYER   1   ROW     3   COL     3   RATE    -72.8551    
 BOUNDARY     34   LAYER   1   ROW     3   COL     4   RATE   -100.0000    
 BOUNDARY     35   LAYER   1   ROW     3   COL     5   RATE   -100.0000    
 BOUNDARY     36   LAYER   1   ROW     3   COL     6   RATE   -100.0000    
 BOUNDARY     37   LAYER   1   ROW     3   COL     7   RATE   -100.0000    
 BOUNDARY     38   LAYER   1   ROW     3   COL     8   RATE   -100.0000    
 BOUNDARY     39   LAYER   1   ROW     3   COL     9   RATE   -100.0000    
 BOUNDARY     40   LAYER   1   ROW     3   COL    10   RATE   -100.0000    
 BOUNDARY     41   LAYER   1   ROW     3   COL    11   RATE   -100.0000    
 BOUNDARY     42   LAYER   1   ROW     3   COL    12   RATE    -71.0916    
 BOUNDARY     43   LAYER   1   ROW     3   COL    13   RATE    -6.38481    
 BOUNDARY     44   LAYER   1   ROW     3   COL    14   RATE     0.00000    
 BOUNDARY     45   LAYER   1   ROW     3   COL    15   RATE     0.00000    
 BOUNDARY     46   LAYER   1   ROW     4   COL     1   RATE     0.00000    
 BOUNDARY     47   LAYER   1   ROW     4   COL     2   RATE    -7.46238    
 BOUNDARY     48   LAYER   1   ROW     4   COL     3   RATE    -93.9590    
 BOUNDARY     49   LAYER   1   ROW     4   COL     4   RATE   -100.0000    
 BOUNDARY     50   LAYER   1   ROW     4   COL     5   RATE   -100.0000    
 BOUNDARY     51   LAYER   1   ROW     4   COL     6   RATE   -100.0000    
 BOUNDARY     52   LAYER   1   ROW     4   COL     7   RATE   -100.0000    
 BOUNDARY     53   LAYER   1   ROW     4   COL     8   RATE   -100.0000    
 BOUNDARY     54   LAYER   1   ROW     4   COL     9   RATE   -100.0000    
 BOUNDARY     55   LAYER   1   ROW     4   COL    10   RATE   -100.0000    
 BOUNDARY     56   LAYER   1   ROW     4   COL    11   RATE   -100.0000    
 BOUNDARY     57   LAYER   1   ROW     4   COL    12   RATE    -84.9284    
 BOUNDARY     58   LAYER   1   ROW     4   COL    13   RATE    -7.79541    
 BOUNDARY     59   LAYER   1   ROW     4   COL    14   RATE     0.00000    
 BOUNDARY     60   LAYER   1   ROW     4   COL    15   RATE     0.00000    
 BOUNDARY     61   LAYER   1   ROW     5   COL     1   RATE   -0.862283    
 BOUNDARY     62   LAYER   1   ROW     5   COL     2   RATE    -11.8891    
 BOUNDARY     63   LAYER   1   ROW     5   COL     3   RATE   -100.0000    
 BOUNDARY     64   LAYER   1   ROW     5   COL     4   RATE   -100.0000    
 BOUNDARY     65   LAYER   1   ROW     5   COL     5   RATE   -100.0000    
 BOUNDARY     66   LAYER   1   ROW     5   COL     6   RATE   -100.0000    
 BOUNDARY     67   LAYER   1   ROW     5   COL     7   RATE   -100.0000    
 BOUNDARY     68   LAYER   1   ROW     5   COL     8   RATE   -100.0000    
 BOUNDARY     69   LAYER   1   ROW     5   COL     9   RATE   -100.0000    
 BOUNDARY     70   LAYER   1   ROW     5   COL    10   RATE   -100.0000    
 BOUNDARY     71   LAYER   1   ROW     5   COL    11   RATE   -100.0000    
 BOUNDARY     72   LAYER   1   ROW     5   COL    12   RATE    -94.4636    
 BOUNDARY     73   LAYER   1   ROW     5   COL    13   RATE    -8.64714    
 BOUNDARY     74   LAYER   1   ROW     5   COL    14   RATE     0.00000    
 BOUNDARY     75   LAYER   1   ROW     5   COL    15   RATE     0.00000    
 BOUNDARY     76   LAYER   1   ROW     6   COL     1   RATE     0.00000    
 BOUNDARY     77   LAYER   1   ROW     6   COL     2   RATE    -8.96842    
 BOUNDARY     78   LAYER   1   ROW     6   COL     3   RATE   -100.0000    
 BOUNDARY     79   LAYER   1   ROW     6   COL     4   RATE   -100.0000    
 BOUNDARY     80   LAYER   1   ROW     6   COL     5   RATE   -100.0000    
 BOUNDARY     81   LAYER   1   ROW     6   COL     6   RATE   -100.0000    
 BOUNDARY     82   LAYER   1   ROW     6   COL     7   RATE   -100.0000    
 BOUNDARY     83   LAYER   1   ROW     6   COL     8   RATE   -100.0000    
 BOUNDARY     84   LAYER   1   ROW     6   COL     9   RATE   -100.0000    
 BOUNDARY     85   LAYER   1   ROW     6   COL    10   RATE   -100.0000    
 BOUNDARY     86   LAYER   1   ROW     6   COL    11   RATE   -100.0000    
 BOUNDARY     87   LAYER   1   ROW     6   COL    12   RATE    -97.8505    
 BOUNDARY     88   LAYER   1   ROW     6   COL    13   RATE    -8.59836    
 BOUNDARY     89   LAYER   1   ROW     6   COL    14   RATE     0.00000    
 BOUNDARY     90   LAYER   1   ROW     6   COL    15   RATE     0.00000    
 BOUNDARY     91   LAYER   1   ROW     7   COL     1   RATE     0.00000    
 BOUNDARY     92   LAYER   1   ROW     7   COL     2   RATE    -5.13596    
 BOUNDARY     93   LAYER   1   ROW     7   COL     3   RATE   -100.0000    
 BOUNDARY     94   LAYER   1   ROW     7   COL     4   RATE   -100.0000    
 BOUNDARY     95   LAYER   1   ROW     7   COL     5   RATE   -100.0000    
 BOUNDARY     96   LAYER   1   ROW     7   COL     6   RATE   -100.0000    
 BOUNDARY     97   LAYER   1   ROW     7   COL     7   RATE   -100.0000    
 BOUNDARY     98   LAYER   1   ROW     7   COL     8   RATE   -100.0000    
 BOUNDARY     99   LAYER   1   ROW     7   COL     9   RATE   -100.0000    
 BOUNDARY    100   LAYER   1   ROW     7   COL    10   RATE   -100.0000    
 BOUNDARY    101   LAYER   1   ROW     7   COL    11   RATE   -100.0000    
 BOUNDARY    102   LAYER   1   ROW     7   COL    12   RATE    -97.5842    
 BOUNDARY    103   LAYER   1   ROW     7   COL    13   RATE    -7.91755    
 BOUNDARY    104   LAYER   1   ROW     7   COL    14   RATE     0.00000    
 BOUNDARY    105   LAYER   1   ROW     7   COL    15   RATE     0.00000    
 BOUNDARY    106   LAYER   1   ROW     8   COL     1   RATE    -2.32284    
 BOUNDARY    107   LAYER   1   ROW     8   COL     2   RATE    -26.6467    
 BOUNDARY    108   LAYER   1   ROW     8   COL     3   RATE   -100.0000    
 BOUNDARY    109   LAYER   1   ROW     8   COL     4   RATE   -100.0000    
 BOUNDARY    110   LAYER   1   ROW     8   COL     5   RATE   -100.0000    
 BOUNDARY    111   LAYER   1   ROW     8   COL     6   RATE   -100.0000    
 BOUNDARY    112   LAYER   1   ROW     8   COL     7   RATE   -100.0000    
 BOUNDARY    113   LAYER   1   ROW     8   COL     8   RATE   -100.0000    
 BOUNDARY    114   LAYER   1   ROW     8   COL     9   RATE   -100.0000    
 BOUNDARY    115   LAYER   1   ROW     8   COL    10   RATE   -100.0000    
 BOUNDARY    116   LAYER   1   ROW     8   COL    11   RATE   -100.0000    
 BOUNDARY    117   LAYER   1   ROW     8   COL    12   RATE   -100.0000    
 BOUNDARY    118   LAYER   1   ROW     8   COL    13   RATE    -7.98830    
 BOUNDARY    119   LAYER   1   ROW     8   COL    14   RATE     0.00000    
 BOUNDARY    120   LAYER   1   ROW     8   COL    15   RATE     0.00000    
 BOUNDARY    121   LAYER   1   ROW     9   COL     1   RATE    -53.1259    
 BOUNDARY    122   LAYER   1   ROW     9   COL     2   RATE   -100.0000    
 BOUNDARY    123   LAYER   1   ROW     9   COL     3   RATE   -100.0000    
 BOUNDARY    124   LAYER   1   ROW     9   COL     4   RATE   -100.0000    
 BOUNDARY    125   LAYER   1   ROW     9   COL     5   RATE   -100.0000    
 BOUNDARY    126   LAYER   1   ROW     9   COL     6   RATE   -100.0000    
 BOUNDARY    127   LAYER   1   ROW     9   COL     7   RATE   -100.0000    
 BOUNDARY    128   LAYER   1   ROW     9   COL     8   RATE   -100.0000    
 BOUNDARY    129   LAYER   1   ROW     9   COL     9   RATE   -100.0000    
 BOUNDARY    130   LAYER   1   ROW     9   COL    10   RATE   -100.0000    
 BOUNDARY    131   LAYER   1   ROW     9   COL    11   RATE   -100.0000    
 BOUNDARY    132   LAYER   1   ROW     9   COL    12   RATE   -100.0000    
 BOUNDARY    133   LAYER   1   ROW     9   COL    13   RATE    -8.87350    
 BOUNDARY    134   LAYER   1   ROW     9   COL    14   RATE     0.00000    
 BOUNDARY    135   LAYER   1   ROW     9   COL    15   RATE     0.00000    
 BOUNDARY    136   LAYER   1   ROW    10   COL     1   RATE   -100.0000    
 BOUNDARY    137   LAYER   1   ROW    10   COL     2   RATE   -100.0000    
 BOUNDARY    138   LAYER   1   ROW    10   COL     3   RATE   -100.0000    
 BOUNDARY    139   LAYER   1   ROW    10   COL     4   RATE   -100.0000    
 BOUNDARY    140   LAYER   1   ROW    10   COL     5   RATE   -100.0000    
 BOUNDARY    141   LAYER   1   ROW    10   COL     6   RATE   -100.0000    
 BOUNDARY    142   LAYER   1   ROW    10   COL     7   RATE   -100.0000    
 BOUNDARY    143   LAYER   1   ROW    10   COL     8   RATE   -100.0000    
 BOUNDARY    144   LAYER   1   ROW    10   COL     9   RATE   -100.0000    
 BOUNDARY    145   LAYER   1   ROW    10   COL    10   RATE   -100.0000    
 BOUNDARY    146   LAYER   1   ROW    10   COL    11   RATE   -100.0000    
 BOUNDARY    147   LAYER   1   ROW    10   COL    12   RATE   -100.0000    
 BOUNDARY    148   LAYER   1   ROW    10   COL    13   RATE    -9.43887    
 BOUNDARY    149   LAYER   1   ROW    10   COL    14   RATE     0.00000    
 BOUNDARY    150   LAYER   1   ROW    10   COL    15   RATE     0.00000    
1
  HEAD             IN LAYER   1 AT END OF TIME STEP 153 IN STRESS PERIOD    7
  ---------------------------------------------------------------------------

           1       2       3       4       5       6       7       8       9      10      11      12      13      14      15
 ...........................................................................................................................
   1   133.39  136.90  141.01  144.63  147.37  149.14  149.96  149.80  148.67  146.51  143.20  138.51  131.83  122.00  106.21
   2   127.79  134.52  140.16  144.35  147.30  149.17  150.10  149.90  148.74  146.60  143.34  138.76  132.32  122.89  107.34
   3   110.49  130.89  139.22  144.11  147.28  149.27  150.28  150.15  148.91  146.77  143.58  139.17  133.19  125.01  114.10
   4   126.46  133.73  139.83  144.31  147.45  149.48  150.52  150.39  149.14  146.98  143.84  139.57  133.90  126.23  115.56
   5   130.43  135.28  140.45  144.67  147.75  149.82  150.81  150.67  149.39  147.20  144.06  139.84  134.32  127.05  117.79
   6   127.14  134.48  140.55  145.01  148.17  150.23  151.15  150.96  149.66  147.40  144.22  139.94  134.30  126.73  117.14
   7   112.04  132.57  140.77  145.53  148.69  150.67  151.51  151.26  149.94  147.59  144.33  139.93  133.96  125.20  110.51
   8   131.16  137.50  142.69  146.54  149.35  151.13  151.86  151.54  150.20  147.79  144.46  140.01  133.99  125.15  110.35
   9   138.66  141.35  144.60  147.57  149.99  151.53  152.14  151.76  150.38  147.96  144.59  140.20  134.44  126.57  116.09
  10   141.58  143.25  145.69  148.21  150.36  151.76  152.29  151.88  150.48  148.05  144.68  140.33  134.72  127.19  116.99
1
  HEAD             IN LAYER   2 AT END OF TIME STEP 153 IN STRESS PERIOD    7
  ---------------------------------------------------------------------------

           1       2       3       4       5       6       7       8       9      10      11      12      13      14      15
 ...........................................................................................................................
   1   134.29  136.63  139.89  143.06  145.62  147.34  148.13  147.94  146.74  144.51  141.18  136.71  131.12  124.78  119.18
   2   132.40  135.58  139.43  142.89  145.58  147.37  148.20  148.02  146.83  144.61  141.33  136.95  131.51  125.42  120.07
   3   129.65  134.40  139.00  142.78  145.61  147.47  148.35  148.18  146.99  144.79  141.57  137.33  132.17  126.57  121.97
   4   131.71  135.14  139.27  142.95  145.78  147.67  148.56  148.40  147.20  145.01  141.85  137.72  132.78  127.49  123.20
   5   132.98  135.89  139.72  143.28  146.08  147.96  148.83  148.66  147.44  145.24  142.09  138.01  133.16  128.03  123.97
   6   132.61  136.01  140.08  143.69  146.48  148.33  149.15  148.94  147.69  145.45  142.27  138.16  133.25  127.99  123.75
   7   131.57  136.24  140.67  144.28  146.99  148.74  149.50  149.23  147.93  145.65  142.42  138.23  133.17  127.54  122.62
   8   135.64  138.56  142.03  145.15  147.59  149.18  149.83  149.49  148.16  145.83  142.55  138.34  133.24  127.58  122.60
   9   139.03  140.85  143.44  146.01  148.14  149.55  150.10  149.70  148.33  145.97  142.69  138.50  133.51  128.13  123.73
  10   140.79  142.15  144.27  146.53  148.47  149.77  150.25  149.82  148.42  146.06  142.77  138.61  133.71  128.49  124.29

 HEAD WILL BE SAVED ON UNIT 1017 AT END OF TIME STEP  153, STRESS PERIOD    7
1
  VOLUME BUDGET FOR ENTIRE MODEL AT END OF TIME STEP  153, STRESS PERIOD   7
  ------------------------------------------------------------------------------

     CUMULATIVE VOLUME      L**3       RATES FOR THIS TIME STEP      L**3/T
     ------------------                 ------------------------

           IN:                                      IN:
           ---                                      ---
             STORAGE =       79588.3441               STORAGE =        1768.2418
    WELLS NEAR RIVER =           0.0000      WELLS NEAR RIVER =           0.0000
               RIVER =           0.0000                 RIVER =           0.0000
           GHB LAKES =           0.0000             GHB LAKES =           0.0000
            RECHARGE =    33640625.0000              RECHARGE =       88125.0000
             ET SEGS =           0.0000               ET SEGS =           0.0000

            TOTAL IN =    33720213.3441              TOTAL IN =       89893.2418

          OUT:                                     OUT:
          ----                                     ----
             STORAGE =     9047731.2095               STORAGE =        5217.9192
    WELLS NEAR RIVER =        5570.0000      WELLS NEAR RIVER =           0.0000
               RIVER =    12279130.9461                 RIVER =       42096.8244
           GHB LAKES =     9440691.7475             GHB LAKES =       32230.9246
            RECHARGE =           0.0000              RECHARGE =           0.0000
             ET SEGS =     2947089.4628               ET SEGS =       10347.5736

           TOTAL OUT =    33720213.3659             TOTAL OUT =       89893.2418

            IN - OUT =      -2.1852E-02              IN - OUT =      -6.0138E-05

 PERCENT DISCREPANCY =          -0.00     PERCENT DISCREPANCY =          -0.00






         TIME SUMMARY AT END OF TIME STEP  153 IN STRESS PERIOD    7
                    SECONDS     MINUTES      HOURS       DAYS        YEARS
                    -----------------------------------------------------------
   TIME STEP LENGTH  86400.      1440.0      24.000     1.00000     2.73785E-03
 STRESS PERIOD TIME 1.32192E+07 2.20320E+05  3672.0      153.00     0.41889    
         TOTAL TIME 2.63520E+07 4.39200E+05  7320.0      305.00     0.83504    
RIV   no.    1 value from time series:   101.00     for time:  305.0     to  306.0    
RIV   no.    2 value from time series:   101.00     for time:  305.0     to  306.0    
RIV   no.    3 value from time series:   111.50     for time:  305.0     to  306.0    
RIV   no.    4 value from time series:   111.50     for time:  305.0     to  306.0    
RIV   no.    5 value from time series:   115.10     for time:  305.0     to  306.0    
RIV   no.    6 value from time series:   115.10     for time:  305.0     to  306.0    
RIV   no.    7 value from time series:   104.00     for time:  305.0     to  306.0    
RIV   no.    8 value from time series:   104.00     for time:  305.0     to  306.0    
RIV   no.    9 value from time series:   113.50     for time:  305.0     to  306.0    
RIV   no.   10 value from time series:   113.50     for time:  305.0     to  306.0    
RIV   no.    1 value from time series:   101.00     for time:  305.0     to  306.0    
RIV   no.    2 value from time series:   101.00     for time:  305.0     to  306.0    
RIV   no.    3 value from time series:   111.50     for time:  305.0     to  306.0    
RIV   no.    4 value from time series:   111.50     for time:  305.0     to  306.0    
RIV   no.    5 value from time series:   115.10     for time:  305.0     to  306.0    
RIV   no.    6 value from time series:   115.10     for time:  305.0     to  306.0    
RIV   no.    7 value from time series:   104.00     for time:  305.0     to  306.0    
RIV   no.    8 value from time series:   104.00     for time:  305.0     to  306.0    
RIV   no.    9 value from time series:   113.50     for time:  305.0     to  306.0    
RIV   no.   10 value from time series:   113.50     for time:  305.0     to  306.0    

 NO OUTPUT CONTROL FOR STRESS PERIOD    7   TIME STEP  154
RIV   no.    1 value from time series:   101.00     for time:  306.0     to  307.0    
RIV   no.    2 value from time series:   101.00     for time:  306.0     to  307.0    
RIV   no.    3 value from time series:   111.50     for time:  306.0     to  307.0    
RIV   no.    4 value from time series:   111.50     for time:  306.0     to  307.0    
RIV   no.    5 value from time series:   115.10     for time:  306.0     to  307.0    
RIV   no.    6 value from time series:   115.10     for time:  306.0     to  307.0    
RIV   no.    7 value from time series:   104.00     for time:  306.0     to  307.0    
RIV   no.    8 value from time series:   104.00     for time:  306.0     to  307.0    
RIV   no.    9 value from time series:   113.50     for time:  306.0     to  307.0    
RIV   no.   10 value from time series:   113.50     for time:  306.0     to  307.0    
RIV   no.    1 value from time series:   101.00     for time:  306.0     to  307.0    
RIV   no.    2 value from time series:   101.00     for time:  306.0     to  307.0    
RIV   no.    3 value from time series:   111.50     for time:  306.0     to  307.0    
RIV   no.    4 value from time series:   111.50     for time:  306.0     to  307.0    
RIV   no.    5 value from time series:   115.10     for time:  306.0     to  307.0    
RIV   no.    6 value from time series:   115.10     for time:  306.0     to  307.0    
RIV   no.    7 value from time series:   104.00     for time:  306.0     to  307.0    
RIV   no.    8 value from time series:   104.00     for time:  306.0     to  307.0    
RIV   no.    9 value from time series:   113.50     for time:  306.0     to  307.0    
RIV   no.   10 value from time series:   113.50     for time:  306.0     to  307.0    

 NO OUTPUT CONTROL FOR STRESS PERIOD    7   TIME STEP  155
RIV   no.    1 value from time series:   101.00     for time:  307.0     to  308.0    
RIV   no.    2 value from time series:   101.00     for time:  307.0     to  308.0    
RIV   no.    3 value from time series:   111.50     for time:  307.0     to  308.0    
RIV   no.    4 value from time series:   111.50     for time:  307.0     to  308.0    
RIV   no.    5 value from time series:   115.10     for time:  307.0     to  308.0    
RIV   no.    6 value from time series:   115.10     for time:  307.0     to  308.0    
RIV   no.    7 value from time series:   104.00     for time:  307.0     to  308.0    
RIV   no.    8 value from time series:   104.00     for time:  307.0     to  308.0    
RIV   no.    9 value from time series:   113.50     for time:  307.0     to  308.0    
RIV   no.   10 value from time series:   113.50     for time:  307.0     to  308.0    
RIV   no.    1 value from time series:   101.00     for time:  307.0     to  308.0    
RIV   no.    2 value from time series:   101.00     for time:  307.0     to  308.0    
RIV   no.    3 value from time series:   111.50     for time:  307.0     to  308.0    
RIV   no.    4 value from time series:   111.50     for time:  307.0     to  308.0    
RIV   no.    5 value from time series:   115.10     for time:  307.0     to  308.0    
RIV   no.    6 value from time series:   115.10     for time:  307.0     to  308.0    
RIV   no.    7 value from time series:   104.00     for time:  307.0     to  308.0    
RIV   no.    8 value from time series:   104.00     for time:  307.0     to  308.0    
RIV   no.    9 value from time series:   113.50     for time:  307.0     to  308.0    
RIV   no.   10 value from time series:   113.50     for time:  307.0     to  308.0    

 NO OUTPUT CONTROL FOR STRESS PERIOD    7   TIME STEP  156
RIV   no.    1 value from time series:   101.00     for time:  308.0     to  309.0    
RIV   no.    2 value from time series:   101.00     for time:  308.0     to  309.0    
RIV   no.    3 value from time series:   111.50     for time:  308.0     to  309.0    
RIV   no.    4 value from time series:   111.50     for time:  308.0     to  309.0    
RIV   no.    5 value from time series:   115.10     for time:  308.0     to  309.0    
RIV   no.    6 value from time series:   115.10     for time:  308.0     to  309.0    
RIV   no.    7 value from time series:   104.00     for time:  308.0     to  309.0    
RIV   no.    8 value from time series:   104.00     for time:  308.0     to  309.0    
RIV   no.    9 value from time series:   113.50     for time:  308.0     to  309.0    
RIV   no.   10 value from time series:   113.50     for time:  308.0     to  309.0    
RIV   no.    1 value from time series:   101.00     for time:  308.0     to  309.0    
RIV   no.    2 value from time series:   101.00     for time:  308.0     to  309.0    
RIV   no.    3 value from time series:   111.50     for time:  308.0     to  309.0    
RIV   no.    4 value from time series:   111.50     for time:  308.0     to  309.0    
RIV   no.    5 value from time series:   115.10     for time:  308.0     to  309.0    
RIV   no.    6 value from time series:   115.10     for time:  308.0     to  309.0    
RIV   no.    7 value from time series:   104.00     for time:  308.0     to  309.0    
RIV   no.    8 value from time series:   104.00     for time:  308.0     to  309.0    
RIV   no.    9 value from time series:   113.50     for time:  308.0     to  309.0    
RIV   no.   10 value from time series:   113.50     for time:  308.0     to  309.0    

 NO OUTPUT CONTROL FOR STRESS PERIOD    7   TIME STEP  157
RIV   no.    1 value from time series:   101.00     for time:  309.0     to  310.0    
RIV   no.    2 value from time series:   101.00     for time:  309.0     to  310.0    
RIV   no.    3 value from time series:   111.50     for time:  309.0     to  310.0    
RIV   no.    4 value from time series:   111.50     for time:  309.0     to  310.0    
RIV   no.    5 value from time series:   115.10     for time:  309.0     to  310.0    
RIV   no.    6 value from time series:   115.10     for time:  309.0     to  310.0    
RIV   no.    7 value from time series:   104.00     for time:  309.0     to  310.0    
RIV   no.    8 value from time series:   104.00     for time:  309.0     to  310.0    
RIV   no.    9 value from time series:   113.50     for time:  309.0     to  310.0    
RIV   no.   10 value from time series:   113.50     for time:  309.0     to  310.0    
RIV   no.    1 value from time series:   101.00     for time:  309.0     to  310.0    
RIV   no.    2 value from time series:   101.00     for time:  309.0     to  310.0    
RIV   no.    3 value from time series:   111.50     for time:  309.0     to  310.0    
RIV   no.    4 value from time series:   111.50     for time:  309.0     to  310.0    
RIV   no.    5 value from time series:   115.10     for time:  309.0     to  310.0    
RIV   no.    6 value from time series:   115.10     for time:  309.0     to  310.0    
RIV   no.    7 value from time series:   104.00     for time:  309.0     to  310.0    
RIV   no.    8 value from time series:   104.00     for time:  309.0     to  310.0    
RIV   no.    9 value from time series:   113.50     for time:  309.0     to  310.0    
RIV   no.   10 value from time series:   113.50     for time:  309.0     to  310.0    

 NO OUTPUT CONTROL FOR STRESS PERIOD    7   TIME STEP  158
RIV   no.    1 value from time series:   101.00     for time:  310.0     to  311.0    
RIV   no.    2 value from time series:   101.00     for time:  310.0     to  311.0    
RIV   no.    3 value from time series:   111.50     for time:  310.0     to  311.0    
RIV   no.    4 value from time series:   111.50     for time:  310.0     to  311.0    
RIV   no.    5 value from time series:   115.10     for time:  310.0     to  311.0    
RIV   no.    6 value from time series:   115.10     for time:  310.0     to  311.0    
RIV   no.    7 value from time series:   104.00     for time:  310.0     to  311.0    
RIV   no.    8 value from time series:   104.00     for time:  310.0     to  311.0    
RIV   no.    9 value from time series:   113.50     for time:  310.0     to  311.0    
RIV   no.   10 value from time series:   113.50     for time:  310.0     to  311.0    
RIV   no.    1 value from time series:   101.00     for time:  310.0     to  311.0    
RIV   no.    2 value from time series:   101.00     for time:  310.0     to  311.0    
RIV   no.    3 value from time series:   111.50     for time:  310.0     to  311.0    
RIV   no.    4 value from time series:   111.50     for time:  310.0     to  311.0    
RIV   no.    5 value from time series:   115.10     for time:  310.0     to  311.0    
RIV   no.    6 value from time series:   115.10     for time:  310.0     to  311.0    
RIV   no.    7 value from time series:   104.00     for time:  310.0     to  311.0    
RIV   no.    8 value from time series:   104.00     for time:  310.0     to  311.0    
RIV   no.    9 value from time series:   113.50     for time:  310.0     to  311.0    
RIV   no.   10 value from time series:   113.50     for time:  310.0     to  311.0    

 NO OUTPUT CONTROL FOR STRESS PERIOD    7   TIME STEP  159
RIV   no.    1 value from time series:   101.00     for time:  311.0     to  312.0    
RIV   no.    2 value from time series:   101.00     for time:  311.0     to  312.0    
RIV   no.    3 value from time series:   111.50     for time:  311.0     to  312.0    
RIV   no.    4 value from time series:   111.50     for time:  311.0     to  312.0    
RIV   no.    5 value from time series:   115.10     for time:  311.0     to  312.0    
RIV   no.    6 value from time series:   115.10     for time:  311.0     to  312.0    
RIV   no.    7 value from time series:   104.00     for time:  311.0     to  312.0    
RIV   no.    8 value from time series:   104.00     for time:  311.0     to  312.0    
RIV   no.    9 value from time series:   113.50     for time:  311.0     to  312.0    
RIV   no.   10 value from time series:   113.50     for time:  311.0     to  312.0    
RIV   no.    1 value from time series:   101.00     for time:  311.0     to  312.0    
RIV   no.    2 value from time series:   101.00     for time:  311.0     to  312.0    
RIV   no.    3 value from time series:   111.50     for time:  311.0     to  312.0    
RIV   no.    4 value from time series:   111.50     for time:  311.0     to  312.0    
RIV   no.    5 value from time series:   115.10     for time:  311.0     to  312.0    
RIV   no.    6 value from time series:   115.10     for time:  311.0     to  312.0    
RIV   no.    7 value from time series:   104.00     for time:  311.0     to  312.0    
RIV   no.    8 value from time series:   104.00     for time:  311.0     to  312.0    
RIV   no.    9 value from time series:   113.50     for time:  311.0     to  312.0    
RIV   no.   10 value from time series:   113.50     for time:  311.0     to  312.0    

 NO OUTPUT CONTROL FOR STRESS PERIOD    7   TIME STEP  160
RIV   no.    1 value from time series:   101.00     for time:  312.0     to  313.0    
RIV   no.    2 value from time series:   101.00     for time:  312.0     to  313.0    
RIV   no.    3 value from time series:   111.50     for time:  312.0     to  313.0    
RIV   no.    4 value from time series:   111.50     for time:  312.0     to  313.0    
RIV   no.    5 value from time series:   115.10     for time:  312.0     to  313.0    
RIV   no.    6 value from time series:   115.10     for time:  312.0     to  313.0    
RIV   no.    7 value from time series:   104.00     for time:  312.0     to  313.0    
RIV   no.    8 value from time series:   104.00     for time:  312.0     to  313.0    
RIV   no.    9 value from time series:   113.50     for time:  312.0     to  313.0    
RIV   no.   10 value from time series:   113.50     for time:  312.0     to  313.0    
RIV   no.    1 value from time series:   101.00     for time:  312.0     to  313.0    
RIV   no.    2 value from time series:   101.00     for time:  312.0     to  313.0    
RIV   no.    3 value from time series:   111.50     for time:  312.0     to  313.0    
RIV   no.    4 value from time series:   111.50     for time:  312.0     to  313.0    
RIV   no.    5 value from time series:   115.10     for time:  312.0     to  313.0    
RIV   no.    6 value from time series:   115.10     for time:  312.0     to  313.0    
RIV   no.    7 value from time series:   104.00     for time:  312.0     to  313.0    
RIV   no.    8 value from time series:   104.00     for time:  312.0     to  313.0    
RIV   no.    9 value from time series:   113.50     for time:  312.0     to  313.0    
RIV   no.   10 value from time series:   113.50     for time:  312.0     to  313.0    

 NO OUTPUT CONTROL FOR STRESS PERIOD    7   TIME STEP  161
RIV   no.    1 value from time series:   101.00     for time:  313.0     to  314.0    
RIV   no.    2 value from time series:   101.00     for time:  313.0     to  314.0    
RIV   no.    3 value from time series:   111.50     for time:  313.0     to  314.0    
RIV   no.    4 value from time series:   111.50     for time:  313.0     to  314.0    
RIV   no.    5 value from time series:   115.10     for time:  313.0     to  314.0    
RIV   no.    6 value from time series:   115.10     for time:  313.0     to  314.0    
RIV   no.    7 value from time series:   104.00     for time:  313.0     to  314.0    
RIV   no.    8 value from time series:   104.00     for time:  313.0     to  314.0    
RIV   no.    9 value from time series:   113.50     for time:  313.0     to  314.0    
RIV   no.   10 value from time series:   113.50     for time:  313.0     to  314.0    
RIV   no.    1 value from time series:   101.00     for time:  313.0     to  314.0    
RIV   no.    2 value from time series:   101.00     for time:  313.0     to  314.0    
RIV   no.    3 value from time series:   111.50     for time:  313.0     to  314.0    
RIV   no.    4 value from time series:   111.50     for time:  313.0     to  314.0    
RIV   no.    5 value from time series:   115.10     for time:  313.0     to  314.0    
RIV   no.    6 value from time series:   115.10     for time:  313.0     to  314.0    
RIV   no.    7 value from time series:   104.00     for time:  313.0     to  314.0    
RIV   no.    8 value from time series:   104.00     for time:  313.0     to  314.0    
RIV   no.    9 value from time series:   113.50     for time:  313.0     to  314.0    
RIV   no.   10 value from time series:   113.50     for time:  313.0     to  314.0    

 NO OUTPUT CONTROL FOR STRESS PERIOD    7   TIME STEP  162
RIV   no.    1 value from time series:   101.00     for time:  314.0     to  315.0    
RIV   no.    2 value from time series:   101.00     for time:  314.0     to  315.0    
RIV   no.    3 value from time series:   111.50     for time:  314.0     to  315.0    
RIV   no.    4 value from time series:   111.50     for time:  314.0     to  315.0    
RIV   no.    5 value from time series:   115.10     for time:  314.0     to  315.0    
RIV   no.    6 value from time series:   115.10     for time:  314.0     to  315.0    
RIV   no.    7 value from time series:   104.00     for time:  314.0     to  315.0    
RIV   no.    8 value from time series:   104.00     for time:  314.0     to  315.0    
RIV   no.    9 value from time series:   113.50     for time:  314.0     to  315.0    
RIV   no.   10 value from time series:   113.50     for time:  314.0     to  315.0    
RIV   no.    1 value from time series:   101.00     for time:  314.0     to  315.0    
RIV   no.    2 value from time series:   101.00     for time:  314.0     to  315.0    
RIV   no.    3 value from time series:   111.50     for time:  314.0     to  315.0    
RIV   no.    4 value from time series:   111.50     for time:  314.0     to  315.0    
RIV   no.    5 value from time series:   115.10     for time:  314.0     to  315.0    
RIV   no.    6 value from time series:   115.10     for time:  314.0     to  315.0    
RIV   no.    7 value from time series:   104.00     for time:  314.0     to  315.0    
RIV   no.    8 value from time series:   104.00     for time:  314.0     to  315.0    
RIV   no.    9 value from time series:   113.50     for time:  314.0     to  315.0    
RIV   no.   10 value from time series:   113.50     for time:  314.0     to  315.0    

 NO OUTPUT CONTROL FOR STRESS PERIOD    7   TIME STEP  163
RIV   no.    1 value from time series:   101.00     for time:  315.0     to  316.0    
RIV   no.    2 value from time series:   101.00     for time:  315.0     to  316.0    
RIV   no.    3 value from time series:   111.50     for time:  315.0     to  316.0    
RIV   no.    4 value from time series:   111.50     for time:  315.0     to  316.0    
RIV   no.    5 value from time series:   115.10     for time:  315.0     to  316.0    
RIV   no.    6 value from time series:   115.10     for time:  315.0     to  316.0    
RIV   no.    7 value from time series:   104.00     for time:  315.0     to  316.0    
RIV   no.    8 value from time series:   104.00     for time:  315.0     to  316.0    
RIV   no.    9 value from time series:   113.50     for time:  315.0     to  316.0    
RIV   no.   10 value from time series:   113.50     for time:  315.0     to  316.0    
RIV   no.    1 value from time series:   101.00     for time:  315.0     to  316.0    
RIV   no.    2 value from time series:   101.00     for time:  315.0     to  316.0    
RIV   no.    3 value from time series:   111.50     for time:  315.0     to  316.0    
RIV   no.    4 value from time series:   111.50     for time:  315.0     to  316.0    
RIV   no.    5 value from time series:   115.10     for time:  315.0     to  316.0    
RIV   no.    6 value from time series:   115.10     for time:  315.0     to  316.0    
RIV   no.    7 value from time series:   104.00     for time:  315.0     to  316.0    
RIV   no.    8 value from time series:   104.00     for time:  315.0     to  316.0    
RIV   no.    9 value from time series:   113.50     for time:  315.0     to  316.0    
RIV   no.   10 value from time series:   113.50     for time:  315.0     to  316.0    

 NO OUTPUT CONTROL FOR STRESS PERIOD    7   TIME STEP  164
RIV   no.    1 value from time series:   101.00     for time:  316.0     to  317.0    
RIV   no.    2 value from time series:   101.00     for time:  316.0     to  317.0    
RIV   no.    3 value from time series:   111.50     for time:  316.0     to  317.0    
RIV   no.    4 value from time series:   111.50     for time:  316.0     to  317.0    
RIV   no.    5 value from time series:   115.10     for time:  316.0     to  317.0    
RIV   no.    6 value from time series:   115.10     for time:  316.0     to  317.0    
RIV   no.    7 value from time series:   104.00     for time:  316.0     to  317.0    
RIV   no.    8 value from time series:   104.00     for time:  316.0     to  317.0    
RIV   no.    9 value from time series:   113.50     for time:  316.0     to  317.0    
RIV   no.   10 value from time series:   113.50     for time:  316.0     to  317.0    
RIV   no.    1 value from time series:   101.00     for time:  316.0     to  317.0    
RIV   no.    2 value from time series:   101.00     for time:  316.0     to  317.0    
RIV   no.    3 value from time series:   111.50     for time:  316.0     to  317.0    
RIV   no.    4 value from time series:   111.50     for time:  316.0     to  317.0    
RIV   no.    5 value from time series:   115.10     for time:  316.0     to  317.0    
RIV   no.    6 value from time series:   115.10     for time:  316.0     to  317.0    
RIV   no.    7 value from time series:   104.00     for time:  316.0     to  317.0    
RIV   no.    8 value from time series:   104.00     for time:  316.0     to  317.0    
RIV   no.    9 value from time series:   113.50     for time:  316.0     to  317.0    
RIV   no.   10 value from time series:   113.50     for time:  316.0     to  317.0    

 NO OUTPUT CONTROL FOR STRESS PERIOD    7   TIME STEP  165
RIV   no.    1 value from time series:   101.00     for time:  317.0     to  318.0    
RIV   no.    2 value from time series:   101.00     for time:  317.0     to  318.0    
RIV   no.    3 value from time series:   111.50     for time:  317.0     to  318.0    
RIV   no.    4 value from time series:   111.50     for time:  317.0     to  318.0    
RIV   no.    5 value from time series:   115.10     for time:  317.0     to  318.0    
RIV   no.    6 value from time series:   115.10     for time:  317.0     to  318.0    
RIV   no.    7 value from time series:   104.00     for time:  317.0     to  318.0    
RIV   no.    8 value from time series:   104.00     for time:  317.0     to  318.0    
RIV   no.    9 value from time series:   113.50     for time:  317.0     to  318.0    
RIV   no.   10 value from time series:   113.50     for time:  317.0     to  318.0    
RIV   no.    1 value from time series:   101.00     for time:  317.0     to  318.0    
RIV   no.    2 value from time series:   101.00     for time:  317.0     to  318.0    
RIV   no.    3 value from time series:   111.50     for time:  317.0     to  318.0    
RIV   no.    4 value from time series:   111.50     for time:  317.0     to  318.0    
RIV   no.    5 value from time series:   115.10     for time:  317.0     to  318.0    
RIV   no.    6 value from time series:   115.10     for time:  317.0     to  318.0    
RIV   no.    7 value from time series:   104.00     for time:  317.0     to  318.0    
RIV   no.    8 value from time series:   104.00     for time:  317.0     to  318.0    
RIV   no.    9 value from time series:   113.50     for time:  317.0     to  318.0    
RIV   no.   10 value from time series:   113.50     for time:  317.0     to  318.0    

 NO OUTPUT CONTROL FOR STRESS PERIOD    7   TIME STEP  166
RIV   no.    1 value from time series:   101.00     for time:  318.0     to  319.0    
RIV   no.    2 value from time series:   101.00     for time:  318.0     to  319.0    
RIV   no.    3 value from time series:   111.50     for time:  318.0     to  319.0    
RIV   no.    4 value from time series:   111.50     for time:  318.0     to  319.0    
RIV   no.    5 value from time series:   115.10     for time:  318.0     to  319.0    
RIV   no.    6 value from time series:   115.10     for time:  318.0     to  319.0    
RIV   no.    7 value from time series:   104.00     for time:  318.0     to  319.0    
RIV   no.    8 value from time series:   104.00     for time:  318.0     to  319.0    
RIV   no.    9 value from time series:   113.50     for time:  318.0     to  319.0    
RIV   no.   10 value from time series:   113.50     for time:  318.0     to  319.0    
RIV   no.    1 value from time series:   101.00     for time:  318.0     to  319.0    
RIV   no.    2 value from time series:   101.00     for time:  318.0     to  319.0    
RIV   no.    3 value from time series:   111.50     for time:  318.0     to  319.0    
RIV   no.    4 value from time series:   111.50     for time:  318.0     to  319.0    
RIV   no.    5 value from time series:   115.10     for time:  318.0     to  319.0    
RIV   no.    6 value from time series:   115.10     for time:  318.0     to  319.0    
RIV   no.    7 value from time series:   104.00     for time:  318.0     to  319.0    
RIV   no.    8 value from time series:   104.00     for time:  318.0     to  319.0    
RIV   no.    9 value from time series:   113.50     for time:  318.0     to  319.0    
RIV   no.   10 value from time series:   113.50     for time:  318.0     to  319.0    

 NO OUTPUT CONTROL FOR STRESS PERIOD    7   TIME STEP  167
RIV   no.    1 value from time series:   101.00     for time:  319.0     to  320.0    
RIV   no.    2 value from time series:   101.00     for time:  319.0     to  320.0    
RIV   no.    3 value from time series:   111.50     for time:  319.0     to  320.0    
RIV   no.    4 value from time series:   111.50     for time:  319.0     to  320.0    
RIV   no.    5 value from time series:   115.10     for time:  319.0     to  320.0    
RIV   no.    6 value from time series:   115.10     for time:  319.0     to  320.0    
RIV   no.    7 value from time series:   104.00     for time:  319.0     to  320.0    
RIV   no.    8 value from time series:   104.00     for time:  319.0     to  320.0    
RIV   no.    9 value from time series:   113.50     for time:  319.0     to  320.0    
RIV   no.   10 value from time series:   113.50     for time:  319.0     to  320.0    
RIV   no.    1 value from time series:   101.00     for time:  319.0     to  320.0    
RIV   no.    2 value from time series:   101.00     for time:  319.0     to  320.0    
RIV   no.    3 value from time series:   111.50     for time:  319.0     to  320.0    
RIV   no.    4 value from time series:   111.50     for time:  319.0     to  320.0    
RIV   no.    5 value from time series:   115.10     for time:  319.0     to  320.0    
RIV   no.    6 value from time series:   115.10     for time:  319.0     to  320.0    
RIV   no.    7 value from time series:   104.00     for time:  319.0     to  320.0    
RIV   no.    8 value from time series:   104.00     for time:  319.0     to  320.0    
RIV   no.    9 value from time series:   113.50     for time:  319.0     to  320.0    
RIV   no.   10 value from time series:   113.50     for time:  319.0     to  320.0    

 NO OUTPUT CONTROL FOR STRESS PERIOD    7   TIME STEP  168
RIV   no.    1 value from time series:   101.00     for time:  320.0     to  321.0    
RIV   no.    2 value from time series:   101.00     for time:  320.0     to  321.0    
RIV   no.    3 value from time series:   111.50     for time:  320.0     to  321.0    
RIV   no.    4 value from time series:   111.50     for time:  320.0     to  321.0    
RIV   no.    5 value from time series:   115.10     for time:  320.0     to  321.0    
RIV   no.    6 value from time series:   115.10     for time:  320.0     to  321.0    
RIV   no.    7 value from time series:   104.00     for time:  320.0     to  321.0    
RIV   no.    8 value from time series:   104.00     for time:  320.0     to  321.0    
RIV   no.    9 value from time series:   113.50     for time:  320.0     to  321.0    
RIV   no.   10 value from time series:   113.50     for time:  320.0     to  321.0    
RIV   no.    1 value from time series:   101.00     for time:  320.0     to  321.0    
RIV   no.    2 value from time series:   101.00     for time:  320.0     to  321.0    
RIV   no.    3 value from time series:   111.50     for time:  320.0     to  321.0    
RIV   no.    4 value from time series:   111.50     for time:  320.0     to  321.0    
RIV   no.    5 value from time series:   115.10     for time:  320.0     to  321.0    
RIV   no.    6 value from time series:   115.10     for time:  320.0     to  321.0    
RIV   no.    7 value from time series:   104.00     for time:  320.0     to  321.0    
RIV   no.    8 value from time series:   104.00     for time:  320.0     to  321.0    
RIV   no.    9 value from time series:   113.50     for time:  320.0     to  321.0    
RIV   no.   10 value from time series:   113.50     for time:  320.0     to  321.0    

 NO OUTPUT CONTROL FOR STRESS PERIOD    7   TIME STEP  169
RIV   no.    1 value from time series:   101.00     for time:  321.0     to  322.0    
RIV   no.    2 value from time series:   101.00     for time:  321.0     to  322.0    
RIV   no.    3 value from time series:   111.50     for time:  321.0     to  322.0    
RIV   no.    4 value from time series:   111.50     for time:  321.0     to  322.0    
RIV   no.    5 value from time series:   115.10     for time:  321.0     to  322.0    
RIV   no.    6 value from time series:   115.10     for time:  321.0     to  322.0    
RIV   no.    7 value from time series:   104.00     for time:  321.0     to  322.0    
RIV   no.    8 value from time series:   104.00     for time:  321.0     to  322.0    
RIV   no.    9 value from time series:   113.50     for time:  321.0     to  322.0    
RIV   no.   10 value from time series:   113.50     for time:  321.0     to  322.0    
RIV   no.    1 value from time series:   101.00     for time:  321.0     to  322.0    
RIV   no.    2 value from time series:   101.00     for time:  321.0     to  322.0    
RIV   no.    3 value from time series:   111.50     for time:  321.0     to  322.0    
RIV   no.    4 value from time series:   111.50     for time:  321.0     to  322.0    
RIV   no.    5 value from time series:   115.10     for time:  321.0     to  322.0    
RIV   no.    6 value from time series:   115.10     for time:  321.0     to  322.0    
RIV   no.    7 value from time series:   104.00     for time:  321.0     to  322.0    
RIV   no.    8 value from time series:   104.00     for time:  321.0     to  322.0    
RIV   no.    9 value from time series:   113.50     for time:  321.0     to  322.0    
RIV   no.   10 value from time series:   113.50     for time:  321.0     to  322.0    

 NO OUTPUT CONTROL FOR STRESS PERIOD    7   TIME STEP  170
RIV   no.    1 value from time series:   101.00     for time:  322.0     to  323.0    
RIV   no.    2 value from time series:   101.00     for time:  322.0     to  323.0    
RIV   no.    3 value from time series:   111.50     for time:  322.0     to  323.0    
RIV   no.    4 value from time series:   111.50     for time:  322.0     to  323.0    
RIV   no.    5 value from time series:   115.10     for time:  322.0     to  323.0    
RIV   no.    6 value from time series:   115.10     for time:  322.0     to  323.0    
RIV   no.    7 value from time series:   104.00     for time:  322.0     to  323.0    
RIV   no.    8 value from time series:   104.00     for time:  322.0     to  323.0    
RIV   no.    9 value from time series:   113.50     for time:  322.0     to  323.0    
RIV   no.   10 value from time series:   113.50     for time:  322.0     to  323.0    
RIV   no.    1 value from time series:   101.00     for time:  322.0     to  323.0    
RIV   no.    2 value from time series:   101.00     for time:  322.0     to  323.0    
RIV   no.    3 value from time series:   111.50     for time:  322.0     to  323.0    
RIV   no.    4 value from time series:   111.50     for time:  322.0     to  323.0    
RIV   no.    5 value from time series:   115.10     for time:  322.0     to  323.0    
RIV   no.    6 value from time series:   115.10     for time:  322.0     to  323.0    
RIV   no.    7 value from time series:   104.00     for time:  322.0     to  323.0    
RIV   no.    8 value from time series:   104.00     for time:  322.0     to  323.0    
RIV   no.    9 value from time series:   113.50     for time:  322.0     to  323.0    
RIV   no.   10 value from time series:   113.50     for time:  322.0     to  323.0    

 NO OUTPUT CONTROL FOR STRESS PERIOD    7   TIME STEP  171
RIV   no.    1 value from time series:   101.00     for time:  323.0     to  324.0    
RIV   no.    2 value from time series:   101.00     for time:  323.0     to  324.0    
RIV   no.    3 value from time series:   111.50     for time:  323.0     to  324.0    
RIV   no.    4 value from time series:   111.50     for time:  323.0     to  324.0    
RIV   no.    5 value from time series:   115.10     for time:  323.0     to  324.0    
RIV   no.    6 value from time series:   115.10     for time:  323.0     to  324.0    
RIV   no.    7 value from time series:   104.00     for time:  323.0     to  324.0    
RIV   no.    8 value from time series:   104.00     for time:  323.0     to  324.0    
RIV   no.    9 value from time series:   113.50     for time:  323.0     to  324.0    
RIV   no.   10 value from time series:   113.50     for time:  323.0     to  324.0    
RIV   no.    1 value from time series:   101.00     for time:  323.0     to  324.0    
RIV   no.    2 value from time series:   101.00     for time:  323.0     to  324.0    
RIV   no.    3 value from time series:   111.50     for time:  323.0     to  324.0    
RIV   no.    4 value from time series:   111.50     for time:  323.0     to  324.0    
RIV   no.    5 value from time series:   115.10     for time:  323.0     to  324.0    
RIV   no.    6 value from time series:   115.10     for time:  323.0     to  324.0    
RIV   no.    7 value from time series:   104.00     for time:  323.0     to  324.0    
RIV   no.    8 value from time series:   104.00     for time:  323.0     to  324.0    
RIV   no.    9 value from time series:   113.50     for time:  323.0     to  324.0    
RIV   no.   10 value from time series:   113.50     for time:  323.0     to  324.0    

 NO OUTPUT CONTROL FOR STRESS PERIOD    7   TIME STEP  172
RIV   no.    1 value from time series:   101.00     for time:  324.0     to  325.0    
RIV   no.    2 value from time series:   101.00     for time:  324.0     to  325.0    
RIV   no.    3 value from time series:   111.50     for time:  324.0     to  325.0    
RIV   no.    4 value from time series:   111.50     for time:  324.0     to  325.0    
RIV   no.    5 value from time series:   115.10     for time:  324.0     to  325.0    
RIV   no.    6 value from time series:   115.10     for time:  324.0     to  325.0    
RIV   no.    7 value from time series:   104.00     for time:  324.0     to  325.0    
RIV   no.    8 value from time series:   104.00     for time:  324.0     to  325.0    
RIV   no.    9 value from time series:   113.50     for time:  324.0     to  325.0    
RIV   no.   10 value from time series:   113.50     for time:  324.0     to  325.0    
RIV   no.    1 value from time series:   101.00     for time:  324.0     to  325.0    
RIV   no.    2 value from time series:   101.00     for time:  324.0     to  325.0    
RIV   no.    3 value from time series:   111.50     for time:  324.0     to  325.0    
RIV   no.    4 value from time series:   111.50     for time:  324.0     to  325.0    
RIV   no.    5 value from time series:   115.10     for time:  324.0     to  325.0    
RIV   no.    6 value from time series:   115.10     for time:  324.0     to  325.0    
RIV   no.    7 value from time series:   104.00     for time:  324.0     to  325.0    
RIV   no.    8 value from time series:   104.00     for time:  324.0     to  325.0    
RIV   no.    9 value from time series:   113.50     for time:  324.0     to  325.0    
RIV   no.   10 value from time series:   113.50     for time:  324.0     to  325.0    

 NO OUTPUT CONTROL FOR STRESS PERIOD    7   TIME STEP  173
RIV   no.    1 value from time series:   101.00     for time:  325.0     to  326.0    
RIV   no.    2 value from time series:   101.00     for time:  325.0     to  326.0    
RIV   no.    3 value from time series:   111.50     for time:  325.0     to  326.0    
RIV   no.    4 value from time series:   111.50     for time:  325.0     to  326.0    
RIV   no.    5 value from time series:   115.10     for time:  325.0     to  326.0    
RIV   no.    6 value from time series:   115.10     for time:  325.0     to  326.0    
RIV   no.    7 value from time series:   104.00     for time:  325.0     to  326.0    
RIV   no.    8 value from time series:   104.00     for time:  325.0     to  326.0    
RIV   no.    9 value from time series:   113.50     for time:  325.0     to  326.0    
RIV   no.   10 value from time series:   113.50     for time:  325.0     to  326.0    
RIV   no.    1 value from time series:   101.00     for time:  325.0     to  326.0    
RIV   no.    2 value from time series:   101.00     for time:  325.0     to  326.0    
RIV   no.    3 value from time series:   111.50     for time:  325.0     to  326.0    
RIV   no.    4 value from time series:   111.50     for time:  325.0     to  326.0    
RIV   no.    5 value from time series:   115.10     for time:  325.0     to  326.0    
RIV   no.    6 value from time series:   115.10     for time:  325.0     to  326.0    
RIV   no.    7 value from time series:   104.00     for time:  325.0     to  326.0    
RIV   no.    8 value from time series:   104.00     for time:  325.0     to  326.0    
RIV   no.    9 value from time series:   113.50     for time:  325.0     to  326.0    
RIV   no.   10 value from time series:   113.50     for time:  325.0     to  326.0    

 NO OUTPUT CONTROL FOR STRESS PERIOD    7   TIME STEP  174
RIV   no.    1 value from time series:   101.00     for time:  326.0     to  327.0    
RIV   no.    2 value from time series:   101.00     for time:  326.0     to  327.0    
RIV   no.    3 value from time series:   111.50     for time:  326.0     to  327.0    
RIV   no.    4 value from time series:   111.50     for time:  326.0     to  327.0    
RIV   no.    5 value from time series:   115.10     for time:  326.0     to  327.0    
RIV   no.    6 value from time series:   115.10     for time:  326.0     to  327.0    
RIV   no.    7 value from time series:   104.00     for time:  326.0     to  327.0    
RIV   no.    8 value from time series:   104.00     for time:  326.0     to  327.0    
RIV   no.    9 value from time series:   113.50     for time:  326.0     to  327.0    
RIV   no.   10 value from time series:   113.50     for time:  326.0     to  327.0    
RIV   no.    1 value from time series:   101.00     for time:  326.0     to  327.0    
RIV   no.    2 value from time series:   101.00     for time:  326.0     to  327.0    
RIV   no.    3 value from time series:   111.50     for time:  326.0     to  327.0    
RIV   no.    4 value from time series:   111.50     for time:  326.0     to  327.0    
RIV   no.    5 value from time series:   115.10     for time:  326.0     to  327.0    
RIV   no.    6 value from time series:   115.10     for time:  326.0     to  327.0    
RIV   no.    7 value from time series:   104.00     for time:  326.0     to  327.0    
RIV   no.    8 value from time series:   104.00     for time:  326.0     to  327.0    
RIV   no.    9 value from time series:   113.50     for time:  326.0     to  327.0    
RIV   no.   10 value from time series:   113.50     for time:  326.0     to  327.0    

 NO OUTPUT CONTROL FOR STRESS PERIOD    7   TIME STEP  175
RIV   no.    1 value from time series:   101.00     for time:  327.0     to  328.0    
RIV   no.    2 value from time series:   101.00     for time:  327.0     to  328.0    
RIV   no.    3 value from time series:   111.50     for time:  327.0     to  328.0    
RIV   no.    4 value from time series:   111.50     for time:  327.0     to  328.0    
RIV   no.    5 value from time series:   115.10     for time:  327.0     to  328.0    
RIV   no.    6 value from time series:   115.10     for time:  327.0     to  328.0    
RIV   no.    7 value from time series:   104.00     for time:  327.0     to  328.0    
RIV   no.    8 value from time series:   104.00     for time:  327.0     to  328.0    
RIV   no.    9 value from time series:   113.50     for time:  327.0     to  328.0    
RIV   no.   10 value from time series:   113.50     for time:  327.0     to  328.0    
RIV   no.    1 value from time series:   101.00     for time:  327.0     to  328.0    
RIV   no.    2 value from time series:   101.00     for time:  327.0     to  328.0    
RIV   no.    3 value from time series:   111.50     for time:  327.0     to  328.0    
RIV   no.    4 value from time series:   111.50     for time:  327.0     to  328.0    
RIV   no.    5 value from time series:   115.10     for time:  327.0     to  328.0    
RIV   no.    6 value from time series:   115.10     for time:  327.0     to  328.0    
RIV   no.    7 value from time series:   104.00     for time:  327.0     to  328.0    
RIV   no.    8 value from time series:   104.00     for time:  327.0     to  328.0    
RIV   no.    9 value from time series:   113.50     for time:  327.0     to  328.0    
RIV   no.   10 value from time series:   113.50     for time:  327.0     to  328.0    

 NO OUTPUT CONTROL FOR STRESS PERIOD    7   TIME STEP  176
RIV   no.    1 value from time series:   101.00     for time:  328.0     to  329.0    
RIV   no.    2 value from time series:   101.00     for time:  328.0     to  329.0    
RIV   no.    3 value from time series:   111.50     for time:  328.0     to  329.0    
RIV   no.    4 value from time series:   111.50     for time:  328.0     to  329.0    
RIV   no.    5 value from time series:   115.10     for time:  328.0     to  329.0    
RIV   no.    6 value from time series:   115.10     for time:  328.0     to  329.0    
RIV   no.    7 value from time series:   104.00     for time:  328.0     to  329.0    
RIV   no.    8 value from time series:   104.00     for time:  328.0     to  329.0    
RIV   no.    9 value from time series:   113.50     for time:  328.0     to  329.0    
RIV   no.   10 value from time series:   113.50     for time:  328.0     to  329.0    
RIV   no.    1 value from time series:   101.00     for time:  328.0     to  329.0    
RIV   no.    2 value from time series:   101.00     for time:  328.0     to  329.0    
RIV   no.    3 value from time series:   111.50     for time:  328.0     to  329.0    
RIV   no.    4 value from time series:   111.50     for time:  328.0     to  329.0    
RIV   no.    5 value from time series:   115.10     for time:  328.0     to  329.0    
RIV   no.    6 value from time series:   115.10     for time:  328.0     to  329.0    
RIV   no.    7 value from time series:   104.00     for time:  328.0     to  329.0    
RIV   no.    8 value from time series:   104.00     for time:  328.0     to  329.0    
RIV   no.    9 value from time series:   113.50     for time:  328.0     to  329.0    
RIV   no.   10 value from time series:   113.50     for time:  328.0     to  329.0    

 NO OUTPUT CONTROL FOR STRESS PERIOD    7   TIME STEP  177
RIV   no.    1 value from time series:   101.00     for time:  329.0     to  330.0    
RIV   no.    2 value from time series:   101.00     for time:  329.0     to  330.0    
RIV   no.    3 value from time series:   111.50     for time:  329.0     to  330.0    
RIV   no.    4 value from time series:   111.50     for time:  329.0     to  330.0    
RIV   no.    5 value from time series:   115.10     for time:  329.0     to  330.0    
RIV   no.    6 value from time series:   115.10     for time:  329.0     to  330.0    
RIV   no.    7 value from time series:   104.00     for time:  329.0     to  330.0    
RIV   no.    8 value from time series:   104.00     for time:  329.0     to  330.0    
RIV   no.    9 value from time series:   113.50     for time:  329.0     to  330.0    
RIV   no.   10 value from time series:   113.50     for time:  329.0     to  330.0    
RIV   no.    1 value from time series:   101.00     for time:  329.0     to  330.0    
RIV   no.    2 value from time series:   101.00     for time:  329.0     to  330.0    
RIV   no.    3 value from time series:   111.50     for time:  329.0     to  330.0    
RIV   no.    4 value from time series:   111.50     for time:  329.0     to  330.0    
RIV   no.    5 value from time series:   115.10     for time:  329.0     to  330.0    
RIV   no.    6 value from time series:   115.10     for time:  329.0     to  330.0    
RIV   no.    7 value from time series:   104.00     for time:  329.0     to  330.0    
RIV   no.    8 value from time series:   104.00     for time:  329.0     to  330.0    
RIV   no.    9 value from time series:   113.50     for time:  329.0     to  330.0    
RIV   no.   10 value from time series:   113.50     for time:  329.0     to  330.0    

 NO OUTPUT CONTROL FOR STRESS PERIOD    7   TIME STEP  178
RIV   no.    1 value from time series:   101.00     for time:  330.0     to  331.0    
RIV   no.    2 value from time series:   101.00     for time:  330.0     to  331.0    
RIV   no.    3 value from time series:   111.50     for time:  330.0     to  331.0    
RIV   no.    4 value from time series:   111.50     for time:  330.0     to  331.0    
RIV   no.    5 value from time series:   115.10     for time:  330.0     to  331.0    
RIV   no.    6 value from time series:   115.10     for time:  330.0     to  331.0    
RIV   no.    7 value from time series:   104.00     for time:  330.0     to  331.0    
RIV   no.    8 value from time series:   104.00     for time:  330.0     to  331.0    
RIV   no.    9 value from time series:   113.50     for time:  330.0     to  331.0    
RIV   no.   10 value from time series:   113.50     for time:  330.0     to  331.0    

 RchArraySeries           =  1.000000E-03 FOR LAYER   1
RIV   no.    1 value from time series:   101.00     for time:  330.0     to  331.0    
RIV   no.    2 value from time series:   101.00     for time:  330.0     to  331.0    
RIV   no.    3 value from time series:   111.50     for time:  330.0     to  331.0    
RIV   no.    4 value from time series:   111.50     for time:  330.0     to  331.0    
RIV   no.    5 value from time series:   115.10     for time:  330.0     to  331.0    
RIV   no.    6 value from time series:   115.10     for time:  330.0     to  331.0    
RIV   no.    7 value from time series:   104.00     for time:  330.0     to  331.0    
RIV   no.    8 value from time series:   104.00     for time:  330.0     to  331.0    
RIV   no.    9 value from time series:   113.50     for time:  330.0     to  331.0    
RIV   no.   10 value from time series:   113.50     for time:  330.0     to  331.0    

 NO OUTPUT CONTROL FOR STRESS PERIOD    7   TIME STEP  179
RIV   no.    1 value from time series:   101.00     for time:  331.0     to  332.0    
RIV   no.    2 value from time series:   101.00     for time:  331.0     to  332.0    
RIV   no.    3 value from time series:   111.50     for time:  331.0     to  332.0    
RIV   no.    4 value from time series:   111.50     for time:  331.0     to  332.0    
RIV   no.    5 value from time series:   115.10     for time:  331.0     to  332.0    
RIV   no.    6 value from time series:   115.10     for time:  331.0     to  332.0    
RIV   no.    7 value from time series:   104.00     for time:  331.0     to  332.0    
RIV   no.    8 value from time series:   104.00     for time:  331.0     to  332.0    
RIV   no.    9 value from time series:   113.50     for time:  331.0     to  332.0    
RIV   no.   10 value from time series:   113.50     for time:  331.0     to  332.0    
RIV   no.    1 value from time series:   101.00     for time:  331.0     to  332.0    
RIV   no.    2 value from time series:   101.00     for time:  331.0     to  332.0    
RIV   no.    3 value from time series:   111.50     for time:  331.0     to  332.0    
RIV   no.    4 value from time series:   111.50     for time:  331.0     to  332.0    
RIV   no.    5 value from time series:   115.10     for time:  331.0     to  332.0    
RIV   no.    6 value from time series:   115.10     for time:  331.0     to  332.0    
RIV   no.    7 value from time series:   104.00     for time:  331.0     to  332.0    
RIV   no.    8 value from time series:   104.00     for time:  331.0     to  332.0    
RIV   no.    9 value from time series:   113.50     for time:  331.0     to  332.0    
RIV   no.   10 value from time series:   113.50     for time:  331.0     to  332.0    

 NO OUTPUT CONTROL FOR STRESS PERIOD    7   TIME STEP  180
RIV   no.    1 value from time series:   101.00     for time:  332.0     to  333.0    
RIV   no.    2 value from time series:   101.00     for time:  332.0     to  333.0    
RIV   no.    3 value from time series:   111.50     for time:  332.0     to  333.0    
RIV   no.    4 value from time series:   111.50     for time:  332.0     to  333.0    
RIV   no.    5 value from time series:   115.10     for time:  332.0     to  333.0    
RIV   no.    6 value from time series:   115.10     for time:  332.0     to  333.0    
RIV   no.    7 value from time series:   104.00     for time:  332.0     to  333.0    
RIV   no.    8 value from time series:   104.00     for time:  332.0     to  333.0    
RIV   no.    9 value from time series:   113.50     for time:  332.0     to  333.0    
RIV   no.   10 value from time series:   113.50     for time:  332.0     to  333.0    
RIV   no.    1 value from time series:   101.00     for time:  332.0     to  333.0    
RIV   no.    2 value from time series:   101.00     for time:  332.0     to  333.0    
RIV   no.    3 value from time series:   111.50     for time:  332.0     to  333.0    
RIV   no.    4 value from time series:   111.50     for time:  332.0     to  333.0    
RIV   no.    5 value from time series:   115.10     for time:  332.0     to  333.0    
RIV   no.    6 value from time series:   115.10     for time:  332.0     to  333.0    
RIV   no.    7 value from time series:   104.00     for time:  332.0     to  333.0    
RIV   no.    8 value from time series:   104.00     for time:  332.0     to  333.0    
RIV   no.    9 value from time series:   113.50     for time:  332.0     to  333.0    
RIV   no.   10 value from time series:   113.50     for time:  332.0     to  333.0    

 NO OUTPUT CONTROL FOR STRESS PERIOD    7   TIME STEP  181
RIV   no.    1 value from time series:   101.00     for time:  333.0     to  334.0    
RIV   no.    2 value from time series:   101.00     for time:  333.0     to  334.0    
RIV   no.    3 value from time series:   111.50     for time:  333.0     to  334.0    
RIV   no.    4 value from time series:   111.50     for time:  333.0     to  334.0    
RIV   no.    5 value from time series:   115.10     for time:  333.0     to  334.0    
RIV   no.    6 value from time series:   115.10     for time:  333.0     to  334.0    
RIV   no.    7 value from time series:   104.00     for time:  333.0     to  334.0    
RIV   no.    8 value from time series:   104.00     for time:  333.0     to  334.0    
RIV   no.    9 value from time series:   113.50     for time:  333.0     to  334.0    
RIV   no.   10 value from time series:   113.50     for time:  333.0     to  334.0    
RIV   no.    1 value from time series:   101.00     for time:  333.0     to  334.0    
RIV   no.    2 value from time series:   101.00     for time:  333.0     to  334.0    
RIV   no.    3 value from time series:   111.50     for time:  333.0     to  334.0    
RIV   no.    4 value from time series:   111.50     for time:  333.0     to  334.0    
RIV   no.    5 value from time series:   115.10     for time:  333.0     to  334.0    
RIV   no.    6 value from time series:   115.10     for time:  333.0     to  334.0    
RIV   no.    7 value from time series:   104.00     for time:  333.0     to  334.0    
RIV   no.    8 value from time series:   104.00     for time:  333.0     to  334.0    
RIV   no.    9 value from time series:   113.50     for time:  333.0     to  334.0    
RIV   no.   10 value from time series:   113.50     for time:  333.0     to  334.0    

 NO OUTPUT CONTROL FOR STRESS PERIOD    7   TIME STEP  182
RIV   no.    1 value from time series:   101.00     for time:  334.0     to  335.0    
RIV   no.    2 value from time series:   101.00     for time:  334.0     to  335.0    
RIV   no.    3 value from time series:   111.50     for time:  334.0     to  335.0    
RIV   no.    4 value from time series:   111.50     for time:  334.0     to  335.0    
RIV   no.    5 value from time series:   115.10     for time:  334.0     to  335.0    
RIV   no.    6 value from time series:   115.10     for time:  334.0     to  335.0    
RIV   no.    7 value from time series:   104.00     for time:  334.0     to  335.0    
RIV   no.    8 value from time series:   104.00     for time:  334.0     to  335.0    
RIV   no.    9 value from time series:   113.50     for time:  334.0     to  335.0    
RIV   no.   10 value from time series:   113.50     for time:  334.0     to  335.0    
RIV   no.    1 value from time series:   101.00     for time:  334.0     to  335.0    
RIV   no.    2 value from time series:   101.00     for time:  334.0     to  335.0    
RIV   no.    3 value from time series:   111.50     for time:  334.0     to  335.0    
RIV   no.    4 value from time series:   111.50     for time:  334.0     to  335.0    
RIV   no.    5 value from time series:   115.10     for time:  334.0     to  335.0    
RIV   no.    6 value from time series:   115.10     for time:  334.0     to  335.0    
RIV   no.    7 value from time series:   104.00     for time:  334.0     to  335.0    
RIV   no.    8 value from time series:   104.00     for time:  334.0     to  335.0    
RIV   no.    9 value from time series:   113.50     for time:  334.0     to  335.0    
RIV   no.   10 value from time series:   113.50     for time:  334.0     to  335.0    

 OUTPUT CONTROL FOR STRESS PERIOD    7   TIME STEP  183
    PRINT BUDGET
    PRINT HEAD
    PRINT HEAD FOR ALL LAYERS
    SAVE BUDGET
    SAVE HEAD
    SAVE HEAD FOR ALL LAYERS
 UBDSV1 SAVING          STORAGE ON UNIT   1016 AT TIME STEP    183, STRESS PERIOD      7
 UBDSV1 SAVING FLOW RIGHT FACE  ON UNIT   1016 AT TIME STEP    183, STRESS PERIOD      7
 UBDSV1 SAVING FLOW FRONT FACE  ON UNIT   1016 AT TIME STEP    183, STRESS PERIOD      7
 UBDSV1 SAVING FLOW LOWER FACE  ON UNIT   1016 AT TIME STEP    183, STRESS PERIOD      7
 UBDSV4 SAVING WELLS NEAR RIVER ON UNIT   1016 AT TIME STEP    183, STRESS PERIOD      7
 UBDSV4 SAVING RIVER            ON UNIT   1016 AT TIME STEP    183, STRESS PERIOD      7

 RIVER              PERIOD  7   STEP183
 BOUNDARY      1   LAYER   1   ROW     1   COL    15   RATE    -5061.11    
 BOUNDARY      2   LAYER   1   ROW     2   COL    15   RATE    -6189.39      RIV2
 BOUNDARY      3   LAYER   1   ROW     3   COL    15   RATE    -2450.57      RIV3
 BOUNDARY      4   LAYER   1   ROW     4   COL    15   RATE    -3915.82    
 BOUNDARY      5   LAYER   1   ROW     5   COL    15   RATE    -2549.58    
 BOUNDARY      6   LAYER   1   ROW     6   COL    15   RATE    -1896.25    
 BOUNDARY      7   LAYER   1   ROW     7   COL    15   RATE    -6390.55      RIVX
 BOUNDARY      8   LAYER   1   ROW     8   COL    15   RATE    -6245.24      RIVX
 BOUNDARY      9   LAYER   1   ROW     9   COL    15   RATE    -2454.23      RIVX
 BOUNDARY     10   LAYER   1   ROW    10   COL    15   RATE    -3364.78    

 GHB LAKES          PERIOD  7   STEP183
 BOUNDARY      1   LAYER   1   ROW     3   COL     1   RATE    -15585.6    
 BOUNDARY      2   LAYER   1   ROW     7   COL     1   RATE    -2708.98      GHB2_UPPER
 BOUNDARY      3   LAYER   1   ROW     7   COL     1   RATE    -13546.2      GHB2_LOWER
 UBDSV4 SAVING RECHARGE         ON UNIT   1016 AT TIME STEP    183, STRESS PERIOD      7

 RECHARGE           PERIOD  7   STEP183
 BOUNDARY      1   LAYER   1   ROW     1   COL     1   RATE     359.375    
 BOUNDARY      2   LAYER   1   ROW     1   COL     2   RATE     359.375    
 BOUNDARY      3   LAYER   1   ROW     1   COL     3   RATE     359.375    
 BOUNDARY      4   LAYER   1   ROW     1   COL     4   RATE     359.375    
 BOUNDARY      5   LAYER   1   ROW     1   COL     5   RATE     359.375    
 BOUNDARY      6   LAYER   1   ROW     1   COL     6   RATE     359.375    
 BOUNDARY      7   LAYER   1   ROW     1   COL     7   RATE     359.375    
 BOUNDARY      8   LAYER   1   ROW     1   COL     8   RATE     359.375    
 BOUNDARY      9   LAYER   1   ROW     1   COL     9   RATE     359.375    
 BOUNDARY     10   LAYER   1   ROW     1   COL    10   RATE     359.375    
 BOUNDARY     11   LAYER   1   ROW     1   COL    11   RATE     359.375    
 BOUNDARY     12   LAYER   1   ROW     1   COL    12   RATE     359.375    
 BOUNDARY     13   LAYER   1   ROW     1   COL    13   RATE     359.375    
 BOUNDARY     14   LAYER   1   ROW     1   COL    14   RATE     359.375    
 BOUNDARY     15   LAYER   1   ROW     1   COL    15   RATE     359.375    
 BOUNDARY     16   LAYER   1   ROW     2   COL     1   RATE     359.375    
 BOUNDARY     17   LAYER   1   ROW     2   COL     2   RATE     359.375    
 BOUNDARY     18   LAYER   1   ROW     2   COL     3   RATE     359.375    
 BOUNDARY     19   LAYER   1   ROW     2   COL     4   RATE     359.375    
 BOUNDARY     20   LAYER   1   ROW     2   COL     5   RATE     359.375    
 BOUNDARY     21   LAYER   1   ROW     2   COL     6   RATE     359.375    
 BOUNDARY     22   LAYER   1   ROW     2   COL     7   RATE     359.375    
 BOUNDARY     23   LAYER   1   ROW     2   COL     8   RATE     359.375    
 BOUNDARY     24   LAYER   1   ROW     2   COL     9   RATE     359.375    
 BOUNDARY     25   LAYER   1   ROW     2   COL    10   RATE     359.375    
 BOUNDARY     26   LAYER   1   ROW     2   COL    11   RATE     359.375    
 BOUNDARY     27   LAYER   1   ROW     2   COL    12   RATE     359.375    
 BOUNDARY     28   LAYER   1   ROW     2   COL    13   RATE     359.375    
 BOUNDARY     29   LAYER   1   ROW     2   COL    14   RATE     359.375    
 BOUNDARY     30   LAYER   1   ROW     2   COL    15   RATE     359.375    
 BOUNDARY     31   LAYER   1   ROW     3   COL     1   RATE     359.375    
 BOUNDARY     32   LAYER   1   ROW     3   COL     2   RATE     359.375    
 BOUNDARY     33   LAYER   1   ROW     3   COL     3   RATE     359.375    
 BOUNDARY     34   LAYER   1   ROW     3   COL     4   RATE     359.375    
 BOUNDARY     35   LAYER   1   ROW     3   COL     5   RATE     359.375    
 BOUNDARY     36   LAYER   1   ROW     3   COL     6   RATE     359.375    
 BOUNDARY     37   LAYER   1   ROW     3   COL     7   RATE     359.375    
 BOUNDARY     38   LAYER   1   ROW     3   COL     8   RATE     359.375    
 BOUNDARY     39   LAYER   1   ROW     3   COL     9   RATE     359.375    
 BOUNDARY     40   LAYER   1   ROW     3   COL    10   RATE     359.375    
 BOUNDARY     41   LAYER   1   ROW     3   COL    11   RATE     359.375    
 BOUNDARY     42   LAYER   1   ROW     3   COL    12   RATE     359.375    
 BOUNDARY     43   LAYER   1   ROW     3   COL    13   RATE     359.375    
 BOUNDARY     44   LAYER   1   ROW     3   COL    14   RATE     359.375    
 BOUNDARY     45   LAYER   1   ROW     3   COL    15   RATE     359.375    
 BOUNDARY     46   LAYER   1   ROW     4   COL     1   RATE     359.375    
 BOUNDARY     47   LAYER   1   ROW     4   COL     2   RATE     359.375    
 BOUNDARY     48   LAYER   1   ROW     4   COL     3   RATE     359.375    
 BOUNDARY     49   LAYER   1   ROW     4   COL     4   RATE     359.375    
 BOUNDARY     50   LAYER   1   ROW     4   COL     5   RATE     359.375    
 BOUNDARY     51   LAYER   1   ROW     4   COL     6   RATE     359.375    
 BOUNDARY     52   LAYER   1   ROW     4   COL     7   RATE     359.375    
 BOUNDARY     53   LAYER   1   ROW     4   COL     8   RATE     359.375    
 BOUNDARY     54   LAYER   1   ROW     4   COL     9   RATE     359.375    
 BOUNDARY     55   LAYER   1   ROW     4   COL    10   RATE     359.375    
 BOUNDARY     56   LAYER   1   ROW     4   COL    11   RATE     359.375    
 BOUNDARY     57   LAYER   1   ROW     4   COL    12   RATE     359.375    
 BOUNDARY     58   LAYER   1   ROW     4   COL    13   RATE     359.375    
 BOUNDARY     59   LAYER   1   ROW     4   COL    14   RATE     359.375    
 BOUNDARY     60   LAYER   1   ROW     4   COL    15   RATE     359.375    
 BOUNDARY     61   LAYER   1   ROW     5   COL     1   RATE     359.375    
 BOUNDARY     62   LAYER   1   ROW     5   COL     2   RATE     359.375    
 BOUNDARY     63   LAYER   1   ROW     5   COL     3   RATE     359.375    
 BOUNDARY     64   LAYER   1   ROW     5   COL     4   RATE     359.375    
 BOUNDARY     65   LAYER   1   ROW     5   COL     5   RATE     359.375    
 BOUNDARY     66   LAYER   1   ROW     5   COL     6   RATE     359.375    
 BOUNDARY     67   LAYER   1   ROW     5   COL     7   RATE     359.375    
 BOUNDARY     68   LAYER   1   ROW     5   COL     8   RATE     359.375    
 BOUNDARY     69   LAYER   1   ROW     5   COL     9   RATE     359.375    
 BOUNDARY     70   LAYER   1   ROW     5   COL    10   RATE     359.375    
 BOUNDARY     71   LAYER   1   ROW     5   COL    11   RATE     359.375    
 BOUNDARY     72   LAYER   1   ROW     5   COL    12   RATE     359.375    
 BOUNDARY     73   LAYER   1   ROW     5   COL    13   RATE     359.375    
 BOUNDARY     74   LAYER   1   ROW     5   COL    14   RATE     359.375    
 BOUNDARY     75   LAYER   1   ROW     5   COL    15   RATE     359.375    
 BOUNDARY     76   LAYER   1   ROW     6   COL     1   RATE     359.375    
 BOUNDARY     77   LAYER   1   ROW     6   COL     2   RATE     359.375    
 BOUNDARY     78   LAYER   1   ROW     6   COL     3   RATE     359.375    
 BOUNDARY     79   LAYER   1   ROW     6   COL     4   RATE     359.375    
 BOUNDARY     80   LAYER   1   ROW     6   COL     5   RATE     359.375    
 BOUNDARY     81   LAYER   1   ROW     6   COL     6   RATE     359.375    
 BOUNDARY     82   LAYER   1   ROW     6   COL     7   RATE     359.375    
 BOUNDARY     83   LAYER   1   ROW     6   COL     8   RATE     359.375    
 BOUNDARY     84   LAYER   1   ROW     6   COL     9   RATE     359.375    
 BOUNDARY     85   LAYER   1   ROW     6   COL    10   RATE     359.375    
 BOUNDARY     86   LAYER   1   ROW     6   COL    11   RATE     359.375    
 BOUNDARY     87   LAYER   1   ROW     6   COL    12   RATE     359.375    
 BOUNDARY     88   LAYER   1   ROW     6   COL    13   RATE     359.375    
 BOUNDARY     89   LAYER   1   ROW     6   COL    14   RATE     359.375    
 BOUNDARY     90   LAYER   1   ROW     6   COL    15   RATE     359.375    
 BOUNDARY     91   LAYER   1   ROW     7   COL     1   RATE     359.375    
 BOUNDARY     92   LAYER   1   ROW     7   COL     2   RATE     359.375    
 BOUNDARY     93   LAYER   1   ROW     7   COL     3   RATE     359.375    
 BOUNDARY     94   LAYER   1   ROW     7   COL     4   RATE     359.375    
 BOUNDARY     95   LAYER   1   ROW     7   COL     5   RATE     359.375    
 BOUNDARY     96   LAYER   1   ROW     7   COL     6   RATE     359.375    
 BOUNDARY     97   LAYER   1   ROW     7   COL     7   RATE     359.375    
 BOUNDARY     98   LAYER   1   ROW     7   COL     8   RATE     359.375    
 BOUNDARY     99   LAYER   1   ROW     7   COL     9   RATE     359.375    
 BOUNDARY    100   LAYER   1   ROW     7   COL    10   RATE     359.375    
 BOUNDARY    101   LAYER   1   ROW     7   COL    11   RATE     359.375    
 BOUNDARY    102   LAYER   1   ROW     7   COL    12   RATE     359.375    
 BOUNDARY    103   LAYER   1   ROW     7   COL    13   RATE     359.375    
 BOUNDARY    104   LAYER   1   ROW     7   COL    14   RATE     359.375    
 BOUNDARY    105   LAYER   1   ROW     7   COL    15   RATE     359.375    
 BOUNDARY    106   LAYER   1   ROW     8   COL     1   RATE     359.375    
 BOUNDARY    107   LAYER   1   ROW     8   COL     2   RATE     359.375    
 BOUNDARY    108   LAYER   1   ROW     8   COL     3   RATE     359.375    
 BOUNDARY    109   LAYER   1   ROW     8   COL     4   RATE     359.375    
 BOUNDARY    110   LAYER   1   ROW     8   COL     5   RATE     359.375    
 BOUNDARY    111   LAYER   1   ROW     8   COL     6   RATE     359.375    
 BOUNDARY    112   LAYER   1   ROW     8   COL     7   RATE     359.375    
 BOUNDARY    113   LAYER   1   ROW     8   COL     8   RATE     359.375    
 BOUNDARY    114   LAYER   1   ROW     8   COL     9   RATE     359.375    
 BOUNDARY    115   LAYER   1   ROW     8   COL    10   RATE     359.375    
 BOUNDARY    116   LAYER   1   ROW     8   COL    11   RATE     359.375    
 BOUNDARY    117   LAYER   1   ROW     8   COL    12   RATE     359.375    
 BOUNDARY    118   LAYER   1   ROW     8   COL    13   RATE     359.375    
 BOUNDARY    119   LAYER   1   ROW     8   COL    14   RATE     359.375    
 BOUNDARY    120   LAYER   1   ROW     8   COL    15   RATE     359.375    
 BOUNDARY    121   LAYER   1   ROW     9   COL     1   RATE     359.375    
 BOUNDARY    122   LAYER   1   ROW     9   COL     2   RATE     359.375    
 BOUNDARY    123   LAYER   1   ROW     9   COL     3   RATE     359.375    
 BOUNDARY    124   LAYER   1   ROW     9   COL     4   RATE     359.375    
 BOUNDARY    125   LAYER   1   ROW     9   COL     5   RATE     359.375    
 BOUNDARY    126   LAYER   1   ROW     9   COL     6   RATE     359.375    
 BOUNDARY    127   LAYER   1   ROW     9   COL     7   RATE     359.375    
 BOUNDARY    128   LAYER   1   ROW     9   COL     8   RATE     359.375    
 BOUNDARY    129   LAYER   1   ROW     9   COL     9   RATE     359.375    
 BOUNDARY    130   LAYER   1   ROW     9   COL    10   RATE     359.375    
 BOUNDARY    131   LAYER   1   ROW     9   COL    11   RATE     359.375    
 BOUNDARY    132   LAYER   1   ROW     9   COL    12   RATE     359.375    
 BOUNDARY    133   LAYER   1   ROW     9   COL    13   RATE     359.375    
 BOUNDARY    134   LAYER   1   ROW     9   COL    14   RATE     359.375    
 BOUNDARY    135   LAYER   1   ROW     9   COL    15   RATE     359.375    
 BOUNDARY    136   LAYER   1   ROW    10   COL     1   RATE     359.375    
 BOUNDARY    137   LAYER   1   ROW    10   COL     2   RATE     359.375    
 BOUNDARY    138   LAYER   1   ROW    10   COL     3   RATE     359.375    
 BOUNDARY    139   LAYER   1   ROW    10   COL     4   RATE     359.375    
 BOUNDARY    140   LAYER   1   ROW    10   COL     5   RATE     359.375    
 BOUNDARY    141   LAYER   1   ROW    10   COL     6   RATE     359.375    
 BOUNDARY    142   LAYER   1   ROW    10   COL     7   RATE     359.375    
 BOUNDARY    143   LAYER   1   ROW    10   COL     8   RATE     359.375    
 BOUNDARY    144   LAYER   1   ROW    10   COL     9   RATE     359.375    
 BOUNDARY    145   LAYER   1   ROW    10   COL    10   RATE     359.375    
 BOUNDARY    146   LAYER   1   ROW    10   COL    11   RATE     359.375    
 BOUNDARY    147   LAYER   1   ROW    10   COL    12   RATE     359.375    
 BOUNDARY    148   LAYER   1   ROW    10   COL    13   RATE     359.375    
 BOUNDARY    149   LAYER   1   ROW    10   COL    14   RATE     359.375    
 BOUNDARY    150   LAYER   1   ROW    10   COL    15   RATE     359.375    
 UBDSV4 SAVING ET SEGS          ON UNIT   1016 AT TIME STEP    183, STRESS PERIOD      7

 ET SEGS            PERIOD  7   STEP183
 BOUNDARY      1   LAYER   1   ROW     1   COL     1   RATE    -6.46341    
 BOUNDARY      2   LAYER   1   ROW     1   COL     2   RATE    -21.7418    
 BOUNDARY      3   LAYER   1   ROW     1   COL     3   RATE   -100.0000    
 BOUNDARY      4   LAYER   1   ROW     1   COL     4   RATE   -100.0000    
 BOUNDARY      5   LAYER   1   ROW     1   COL     5   RATE   -100.0000    
 BOUNDARY      6   LAYER   1   ROW     1   COL     6   RATE   -100.0000    
 BOUNDARY      7   LAYER   1   ROW     1   COL     7   RATE   -100.0000    
 BOUNDARY      8   LAYER   1   ROW     1   COL     8   RATE   -100.0000    
 BOUNDARY      9   LAYER   1   ROW     1   COL     9   RATE   -100.0000    
 BOUNDARY     10   LAYER   1   ROW     1   COL    10   RATE   -100.0000    
 BOUNDARY     11   LAYER   1   ROW     1   COL    11   RATE   -100.0000    
 BOUNDARY     12   LAYER   1   ROW     1   COL    12   RATE    -43.1358    
 BOUNDARY     13   LAYER   1   ROW     1   COL    13   RATE    -3.32252    
 BOUNDARY     14   LAYER   1   ROW     1   COL    14   RATE     0.00000    
 BOUNDARY     15   LAYER   1   ROW     1   COL    15   RATE     0.00000    
 BOUNDARY     16   LAYER   1   ROW     2   COL     1   RATE     0.00000    
 BOUNDARY     17   LAYER   1   ROW     2   COL     2   RATE    -8.75364    
 BOUNDARY     18   LAYER   1   ROW     2   COL     3   RATE   -100.0000    
 BOUNDARY     19   LAYER   1   ROW     2   COL     4   RATE   -100.0000    
 BOUNDARY     20   LAYER   1   ROW     2   COL     5   RATE   -100.0000    
 BOUNDARY     21   LAYER   1   ROW     2   COL     6   RATE   -100.0000    
 BOUNDARY     22   LAYER   1   ROW     2   COL     7   RATE   -100.0000    
 BOUNDARY     23   LAYER   1   ROW     2   COL     8   RATE   -100.0000    
 BOUNDARY     24   LAYER   1   ROW     2   COL     9   RATE   -100.0000    
 BOUNDARY     25   LAYER   1   ROW     2   COL    10   RATE   -100.0000    
 BOUNDARY     26   LAYER   1   ROW     2   COL    11   RATE   -100.0000    
 BOUNDARY     27   LAYER   1   ROW     2   COL    12   RATE    -51.8081    
 BOUNDARY     28   LAYER   1   ROW     2   COL    13   RATE    -4.28466    
 BOUNDARY     29   LAYER   1   ROW     2   COL    14   RATE     0.00000    
 BOUNDARY     30   LAYER   1   ROW     2   COL    15   RATE     0.00000    
 BOUNDARY     31   LAYER   1   ROW     3   COL     1   RATE     0.00000    
 BOUNDARY     32   LAYER   1   ROW     3   COL     2   RATE    -1.47790    
 BOUNDARY     33   LAYER   1   ROW     3   COL     3   RATE    -68.5623    
 BOUNDARY     34   LAYER   1   ROW     3   COL     4   RATE   -100.0000    
 BOUNDARY     35   LAYER   1   ROW     3   COL     5   RATE   -100.0000    
 BOUNDARY     36   LAYER   1   ROW     3   COL     6   RATE   -100.0000    
 BOUNDARY     37   LAYER   1   ROW     3   COL     7   RATE   -100.0000    
 BOUNDARY     38   LAYER   1   ROW     3   COL     8   RATE   -100.0000    
 BOUNDARY     39   LAYER   1   ROW     3   COL     9   RATE   -100.0000    
 BOUNDARY     40   LAYER   1   ROW     3   COL    10   RATE   -100.0000    
 BOUNDARY     41   LAYER   1   ROW     3   COL    11   RATE   -100.0000    
 BOUNDARY     42   LAYER   1   ROW     3   COL    12   RATE    -66.4325    
 BOUNDARY     43   LAYER   1   ROW     3   COL    13   RATE    -6.03429    
 BOUNDARY     44   LAYER   1   ROW     3   COL    14   RATE     0.00000    
 BOUNDARY     45   LAYER   1   ROW     3   COL    15   RATE     0.00000    
 BOUNDARY     46   LAYER   1   ROW     4   COL     1   RATE     0.00000    
 BOUNDARY     47   LAYER   1   ROW     4   COL     2   RATE    -7.15672    
 BOUNDARY     48   LAYER   1   ROW     4   COL     3   RATE    -89.8212    
 BOUNDARY     49   LAYER   1   ROW     4   COL     4   RATE   -100.0000    
 BOUNDARY     50   LAYER   1   ROW     4   COL     5   RATE   -100.0000    
 BOUNDARY     51   LAYER   1   ROW     4   COL     6   RATE   -100.0000    
 BOUNDARY     52   LAYER   1   ROW     4   COL     7   RATE   -100.0000    
 BOUNDARY     53   LAYER   1   ROW     4   COL     8   RATE   -100.0000    
 BOUNDARY     54   LAYER   1   ROW     4   COL     9   RATE   -100.0000    
 BOUNDARY     55   LAYER   1   ROW     4   COL    10   RATE   -100.0000    
 BOUNDARY     56   LAYER   1   ROW     4   COL    11   RATE   -100.0000    
 BOUNDARY     57   LAYER   1   ROW     4   COL    12   RATE    -80.3061    
 BOUNDARY     58   LAYER   1   ROW     4   COL    13   RATE    -7.44197    
 BOUNDARY     59   LAYER   1   ROW     4   COL    14   RATE     0.00000    
 BOUNDARY     60   LAYER   1   ROW     4   COL    15   RATE     0.00000    
 BOUNDARY     61   LAYER   1   ROW     5   COL     1   RATE   -0.516430    
 BOUNDARY     62   LAYER   1   ROW     5   COL     2   RATE    -10.9081    
 BOUNDARY     63   LAYER   1   ROW     5   COL     3   RATE   -100.0000    
 BOUNDARY     64   LAYER   1   ROW     5   COL     4   RATE   -100.0000    
 BOUNDARY     65   LAYER   1   ROW     5   COL     5   RATE   -100.0000    
 BOUNDARY     66   LAYER   1   ROW     5   COL     6   RATE   -100.0000    
 BOUNDARY     67   LAYER   1   ROW     5   COL     7   RATE   -100.0000    
 BOUNDARY     68   LAYER   1   ROW     5   COL     8   RATE   -100.0000    
 BOUNDARY     69   LAYER   1   ROW     5   COL     9   RATE   -100.0000    
 BOUNDARY     70   LAYER   1   ROW     5   COL    10   RATE   -100.0000    
 BOUNDARY     71   LAYER   1   ROW     5   COL    11   RATE   -100.0000    
 BOUNDARY     72   LAYER   1   ROW     5   COL    12   RATE    -89.9347    
 BOUNDARY     73   LAYER   1   ROW     5   COL    13   RATE    -8.29398    
 BOUNDARY     74   LAYER   1   ROW     5   COL    14   RATE     0.00000    
 BOUNDARY     75   LAYER   1   ROW     5   COL    15   RATE     0.00000    
 BOUNDARY     76   LAYER   1   ROW     6   COL     1   RATE     0.00000    
 BOUNDARY     77   LAYER   1   ROW     6   COL     2   RATE    -8.68262    
 BOUNDARY     78   LAYER   1   ROW     6   COL     3   RATE   -100.0000    
 BOUNDARY     79   LAYER   1   ROW     6   COL     4   RATE   -100.0000    
 BOUNDARY     80   LAYER   1   ROW     6   COL     5   RATE   -100.0000    
 BOUNDARY     81   LAYER   1   ROW     6   COL     6   RATE   -100.0000    
 BOUNDARY     82   LAYER   1   ROW     6   COL     7   RATE   -100.0000    
 BOUNDARY     83   LAYER   1   ROW     6   COL     8   RATE   -100.0000    
 BOUNDARY     84   LAYER   1   ROW     6   COL     9   RATE   -100.0000    
 BOUNDARY     85   LAYER   1   ROW     6   COL    10   RATE   -100.0000    
 BOUNDARY     86   LAYER   1   ROW     6   COL    11   RATE   -100.0000    
 BOUNDARY     87   LAYER   1   ROW     6   COL    12   RATE    -93.4742    
 BOUNDARY     88   LAYER   1   ROW     6   COL    13   RATE    -8.24917    
 BOUNDARY     89   LAYER   1   ROW     6   COL    14   RATE     0.00000    
 BOUNDARY     90   LAYER   1   ROW     6   COL    15   RATE     0.00000    
 BOUNDARY     91   LAYER   1   ROW     7   COL     1   RATE     0.00000    
 BOUNDARY     92   LAYER   1   ROW     7   COL     2   RATE    -4.87512    
 BOUNDARY     93   LAYER   1   ROW     7   COL     3   RATE   -100.0000    
 BOUNDARY     94   LAYER   1   ROW     7   COL     4   RATE   -100.0000    
 BOUNDARY     95   LAYER   1   ROW     7   COL     5   RATE   -100.0000    
 BOUNDARY     96   LAYER   1   ROW     7   COL     6   RATE   -100.0000    
 BOUNDARY     97   LAYER   1   ROW     7   COL     7   RATE   -100.0000    
 BOUNDARY     98   LAYER   1   ROW     7   COL     8   RATE   -100.0000    
 BOUNDARY     99   LAYER   1   ROW     7   COL     9   RATE   -100.0000    
 BOUNDARY    100   LAYER   1   ROW     7   COL    10   RATE   -100.0000    
 BOUNDARY    101   LAYER   1   ROW     7   COL    11   RATE   -100.0000    
 BOUNDARY    102   LAYER   1   ROW     7   COL    12   RATE    -93.4078    
 BOUNDARY    103   LAYER   1   ROW     7   COL    13   RATE    -7.57513    
 BOUNDARY    104   LAYER   1   ROW     7   COL    14   RATE     0.00000    
 BOUNDARY    105   LAYER   1   ROW     7   COL    15   RATE     0.00000    
 BOUNDARY    106   LAYER   1   ROW     8   COL     1   RATE    -2.03589    
 BOUNDARY    107   LAYER   1   ROW     8   COL     2   RATE    -25.8716    
 BOUNDARY    108   LAYER   1   ROW     8   COL     3   RATE   -100.0000    
 BOUNDARY    109   LAYER   1   ROW     8   COL     4   RATE   -100.0000    
 BOUNDARY    110   LAYER   1   ROW     8   COL     5   RATE   -100.0000    
 BOUNDARY    111   LAYER   1   ROW     8   COL     6   RATE   -100.0000    
 BOUNDARY    112   LAYER   1   ROW     8   COL     7   RATE   -100.0000    
 BOUNDARY    113   LAYER   1   ROW     8   COL     8   RATE   -100.0000    
 BOUNDARY    114   LAYER   1   ROW     8   COL     9   RATE   -100.0000    
 BOUNDARY    115   LAYER   1   ROW     8   COL    10   RATE   -100.0000    
 BOUNDARY    116   LAYER   1   ROW     8   COL    11   RATE   -100.0000    
 BOUNDARY    117   LAYER   1   ROW     8   COL    12   RATE    -96.4363    
 BOUNDARY    118   LAYER   1   ROW     8   COL    13   RATE    -7.65261    
 BOUNDARY    119   LAYER   1   ROW     8   COL    14   RATE     0.00000    
 BOUNDARY    120   LAYER   1   ROW     8   COL    15   RATE     0.00000    
 BOUNDARY    121   LAYER   1   ROW     9   COL     1   RATE    -48.8622    
 BOUNDARY    122   LAYER   1   ROW     9   COL     2   RATE   -100.0000    
 BOUNDARY    123   LAYER   1   ROW     9   COL     3   RATE   -100.0000    
 BOUNDARY    124   LAYER   1   ROW     9   COL     4   RATE   -100.0000    
 BOUNDARY    125   LAYER   1   ROW     9   COL     5   RATE   -100.0000    
 BOUNDARY    126   LAYER   1   ROW     9   COL     6   RATE   -100.0000    
 BOUNDARY    127   LAYER   1   ROW     9   COL     7   RATE   -100.0000    
 BOUNDARY    128   LAYER   1   ROW     9   COL     8   RATE   -100.0000    
 BOUNDARY    129   LAYER   1   ROW     9   COL     9   RATE   -100.0000    
 BOUNDARY    130   LAYER   1   ROW     9   COL    10   RATE   -100.0000    
 BOUNDARY    131   LAYER   1   ROW     9   COL    11   RATE   -100.0000    
 BOUNDARY    132   LAYER   1   ROW     9   COL    12   RATE   -100.0000    
 BOUNDARY    133   LAYER   1   ROW     9   COL    13   RATE    -8.54287    
 BOUNDARY    134   LAYER   1   ROW     9   COL    14   RATE     0.00000    
 BOUNDARY    135   LAYER   1   ROW     9   COL    15   RATE     0.00000    
 BOUNDARY    136   LAYER   1   ROW    10   COL     1   RATE   -100.0000    
 BOUNDARY    137   LAYER   1   ROW    10   COL     2   RATE   -100.0000    
 BOUNDARY    138   LAYER   1   ROW    10   COL     3   RATE   -100.0000    
 BOUNDARY    139   LAYER   1   ROW    10   COL     4   RATE   -100.0000    
 BOUNDARY    140   LAYER   1   ROW    10   COL     5   RATE   -100.0000    
 BOUNDARY    141   LAYER   1   ROW    10   COL     6   RATE   -100.0000    
 BOUNDARY    142   LAYER   1   ROW    10   COL     7   RATE   -100.0000    
 BOUNDARY    143   LAYER   1   ROW    10   COL     8   RATE   -100.0000    
 BOUNDARY    144   LAYER   1   ROW    10   COL     9   RATE   -100.0000    
 BOUNDARY    145   LAYER   1   ROW    10   COL    10   RATE   -100.0000    
 BOUNDARY    146   LAYER   1   ROW    10   COL    11   RATE   -100.0000    
 BOUNDARY    147   LAYER   1   ROW    10   COL    12   RATE   -100.0000    
 BOUNDARY    148   LAYER   1   ROW    10   COL    13   RATE    -9.11098    
 BOUNDARY    149   LAYER   1   ROW    10   COL    14   RATE     0.00000    
 BOUNDARY    150   LAYER   1   ROW    10   COL    15   RATE     0.00000    
1
  HEAD             IN LAYER   1 AT END OF TIME STEP 183 IN STRESS PERIOD    7
  ---------------------------------------------------------------------------

           1       2       3       4       5       6       7       8       9      10      11      12      13      14      15
 ...........................................................................................................................
   1   133.23  136.76  140.90  144.54  147.29  149.08  149.90  149.75  148.61  146.43  143.09  138.38  131.66  121.79  106.06
   2   127.62  134.38  140.04  144.26  147.23  149.10  149.93  149.81  148.69  146.53  143.24  138.62  132.14  122.68  107.18
   3   110.37  130.74  139.10  144.02  147.21  149.17  149.96  149.90  148.83  146.70  143.49  139.04  133.02  124.80  113.94
   4   126.29  133.58  139.71  144.23  147.39  149.33  150.00  149.96  149.01  146.91  143.75  139.44  133.72  126.02  115.40
   5   130.26  135.14  140.34  144.60  147.68  149.58  150.09  150.00  149.22  147.13  143.98  139.71  134.15  126.84  117.64
   6   126.97  134.34  140.45  144.94  148.03  149.81  150.25  150.13  149.44  147.33  144.14  139.81  134.12  126.52  116.98
   7   111.93  132.44  140.68  145.46  148.48  149.97  150.40  150.29  149.64  147.51  144.26  139.81  133.79  124.99  110.35
   8   131.02  137.38  142.61  146.47  149.07  150.14  150.56  150.42  149.77  147.67  144.38  139.90  133.83  124.94  110.20
   9   138.54  141.25  144.54  147.48  149.62  150.39  150.71  150.53  149.84  147.78  144.52  140.09  134.27  126.36  115.93
  10   141.47  143.17  145.62  148.06  149.87  150.54  150.80  150.58  149.87  147.85  144.61  140.23  134.56  126.98  116.83
1
  HEAD             IN LAYER   2 AT END OF TIME STEP 183 IN STRESS PERIOD    7
  ---------------------------------------------------------------------------

           1       2       3       4       5       6       7       8       9      10      11      12      13      14      15
 ...........................................................................................................................
   1   134.19  136.54  139.82  142.99  145.56  147.27  148.06  147.87  146.68  144.45  141.11  136.62  131.00  124.64  119.05
   2   132.30  135.49  139.35  142.82  145.51  147.29  148.09  147.92  146.75  144.54  141.25  136.85  131.40  125.28  119.94
   3   129.55  134.31  138.91  142.70  145.52  147.34  148.16  148.01  146.88  144.71  141.49  137.23  132.05  126.43  121.84
   4   131.61  135.04  139.18  142.85  145.66  147.48  148.27  148.13  147.03  144.91  141.75  137.62  132.65  127.35  123.07
   5   132.87  135.78  139.62  143.17  145.92  147.69  148.43  148.28  147.21  145.10  141.98  137.90  133.04  127.89  123.83
   6   132.50  135.91  139.98  143.56  146.25  147.94  148.63  148.45  147.39  145.28  142.15  138.05  133.12  127.85  123.62
   7   131.48  136.14  140.55  144.11  146.68  148.23  148.84  148.63  147.56  145.44  142.28  138.11  133.04  127.40  122.48
   8   135.54  138.46  141.91  144.95  147.21  148.54  149.05  148.79  147.70  145.57  142.40  138.21  133.11  127.44  122.47
   9   138.94  140.75  143.30  145.77  147.70  148.82  149.23  148.92  147.80  145.68  142.51  138.37  133.38  127.99  123.60
  10   140.70  142.05  144.13  146.27  147.98  148.99  149.33  148.98  147.86  145.74  142.59  138.47  133.57  128.35  124.15

 HEAD WILL BE SAVED ON UNIT 1017 AT END OF TIME STEP  183, STRESS PERIOD    7
1
  VOLUME BUDGET FOR ENTIRE MODEL AT END OF TIME STEP  183, STRESS PERIOD   7
  ------------------------------------------------------------------------------

     CUMULATIVE VOLUME      L**3       RATES FOR THIS TIME STEP      L**3/T
     ------------------                 ------------------------

           IN:                                      IN:
           ---                                      ---
             STORAGE =      538079.0353               STORAGE =       28743.2467
    WELLS NEAR RIVER =           0.0000      WELLS NEAR RIVER =           0.0000
               RIVER =           0.0000                 RIVER =           0.0000
           GHB LAKES =           0.0000             GHB LAKES =           0.0000
            RECHARGE =    35712239.5833              RECHARGE =       53906.2500
             ET SEGS =           0.0000               ET SEGS =           0.0000

            TOTAL IN =    36250318.6186              TOTAL IN =       82649.4967

          OUT:                                     OUT:
          ----                                     ----
             STORAGE =     9064636.0387               STORAGE =           0.0000
    WELLS NEAR RIVER =        5570.0000      WELLS NEAR RIVER =           0.0000
               RIVER =    13520574.5842                 RIVER =       40517.5223
           GHB LAKES =    10402588.0504             GHB LAKES =       31840.8019
            RECHARGE =           0.0000              RECHARGE =           0.0000
             ET SEGS =     3256949.9652               ET SEGS =       10291.1725

           TOTAL OUT =    36250318.6385             TOTAL OUT =       82649.4967

            IN - OUT =      -1.9854E-02              IN - OUT =       7.1338E-05

 PERCENT DISCREPANCY =          -0.00     PERCENT DISCREPANCY =           0.00






         TIME SUMMARY AT END OF TIME STEP  183 IN STRESS PERIOD    7
                    SECONDS     MINUTES      HOURS       DAYS        YEARS
                    -----------------------------------------------------------
   TIME STEP LENGTH  86400.      1440.0      24.000     1.00000     2.73785E-03
 STRESS PERIOD TIME 1.58112E+07 2.63520E+05  4392.0      183.00     0.50103    
         TOTAL TIME 2.89440E+07 4.82400E+05  8040.0      335.00     0.91718    

 REUSING STORAGE VALUES FROM LAST STRESS PERIOD
 #        k         i         j      flow      var1    var2 var3

 REUSING WELS FROM LAST STRESS PERIOD

 REUSING RIVS FROM LAST STRESS PERIOD

 REUSING GHBS FROM LAST STRESS PERIOD

                 RECHARGE =  1.000000E-03

 REUSING ETSS FROM LAST STRESS PERIOD
RIV   no.    1 value from time series:   101.00     for time:  335.0     to  336.0    
RIV   no.    2 value from time series:   101.00     for time:  335.0     to  336.0    
RIV   no.    3 value from time series:   111.50     for time:  335.0     to  336.0    
RIV   no.    4 value from time series:   111.50     for time:  335.0     to  336.0    
RIV   no.    5 value from time series:   115.10     for time:  335.0     to  336.0    
RIV   no.    6 value from time series:   115.10     for time:  335.0     to  336.0    
RIV   no.    7 value from time series:   104.00     for time:  335.0     to  336.0    
RIV   no.    8 value from time series:   104.00     for time:  335.0     to  336.0    
RIV   no.    9 value from time series:   113.50     for time:  335.0     to  336.0    
RIV   no.   10 value from time series:   113.50     for time:  335.0     to  336.0    
RIV   no.    1 value from time series:   101.00     for time:  335.0     to  336.0    
RIV   no.    2 value from time series:   101.00     for time:  335.0     to  336.0    
RIV   no.    3 value from time series:   111.50     for time:  335.0     to  336.0    
RIV   no.    4 value from time series:   111.50     for time:  335.0     to  336.0    
RIV   no.    5 value from time series:   115.10     for time:  335.0     to  336.0    
RIV   no.    6 value from time series:   115.10     for time:  335.0     to  336.0    
RIV   no.    7 value from time series:   104.00     for time:  335.0     to  336.0    
RIV   no.    8 value from time series:   104.00     for time:  335.0     to  336.0    
RIV   no.    9 value from time series:   113.50     for time:  335.0     to  336.0    
RIV   no.   10 value from time series:   113.50     for time:  335.0     to  336.0    

 NO OUTPUT CONTROL FOR STRESS PERIOD    8   TIME STEP    1
RIV   no.    1 value from time series:   101.00     for time:  336.0     to  337.0    
RIV   no.    2 value from time series:   101.00     for time:  336.0     to  337.0    
RIV   no.    3 value from time series:   111.50     for time:  336.0     to  337.0    
RIV   no.    4 value from time series:   111.50     for time:  336.0     to  337.0    
RIV   no.    5 value from time series:   115.10     for time:  336.0     to  337.0    
RIV   no.    6 value from time series:   115.10     for time:  336.0     to  337.0    
RIV   no.    7 value from time series:   104.00     for time:  336.0     to  337.0    
RIV   no.    8 value from time series:   104.00     for time:  336.0     to  337.0    
RIV   no.    9 value from time series:   113.50     for time:  336.0     to  337.0    
RIV   no.   10 value from time series:   113.50     for time:  336.0     to  337.0    
RIV   no.    1 value from time series:   101.00     for time:  336.0     to  337.0    
RIV   no.    2 value from time series:   101.00     for time:  336.0     to  337.0    
RIV   no.    3 value from time series:   111.50     for time:  336.0     to  337.0    
RIV   no.    4 value from time series:   111.50     for time:  336.0     to  337.0    
RIV   no.    5 value from time series:   115.10     for time:  336.0     to  337.0    
RIV   no.    6 value from time series:   115.10     for time:  336.0     to  337.0    
RIV   no.    7 value from time series:   104.00     for time:  336.0     to  337.0    
RIV   no.    8 value from time series:   104.00     for time:  336.0     to  337.0    
RIV   no.    9 value from time series:   113.50     for time:  336.0     to  337.0    
RIV   no.   10 value from time series:   113.50     for time:  336.0     to  337.0    

 NO OUTPUT CONTROL FOR STRESS PERIOD    8   TIME STEP    2
RIV   no.    1 value from time series:   101.00     for time:  337.0     to  338.0    
RIV   no.    2 value from time series:   101.00     for time:  337.0     to  338.0    
RIV   no.    3 value from time series:   111.50     for time:  337.0     to  338.0    
RIV   no.    4 value from time series:   111.50     for time:  337.0     to  338.0    
RIV   no.    5 value from time series:   115.10     for time:  337.0     to  338.0    
RIV   no.    6 value from time series:   115.10     for time:  337.0     to  338.0    
RIV   no.    7 value from time series:   104.00     for time:  337.0     to  338.0    
RIV   no.    8 value from time series:   104.00     for time:  337.0     to  338.0    
RIV   no.    9 value from time series:   113.50     for time:  337.0     to  338.0    
RIV   no.   10 value from time series:   113.50     for time:  337.0     to  338.0    
RIV   no.    1 value from time series:   101.00     for time:  337.0     to  338.0    
RIV   no.    2 value from time series:   101.00     for time:  337.0     to  338.0    
RIV   no.    3 value from time series:   111.50     for time:  337.0     to  338.0    
RIV   no.    4 value from time series:   111.50     for time:  337.0     to  338.0    
RIV   no.    5 value from time series:   115.10     for time:  337.0     to  338.0    
RIV   no.    6 value from time series:   115.10     for time:  337.0     to  338.0    
RIV   no.    7 value from time series:   104.00     for time:  337.0     to  338.0    
RIV   no.    8 value from time series:   104.00     for time:  337.0     to  338.0    
RIV   no.    9 value from time series:   113.50     for time:  337.0     to  338.0    
RIV   no.   10 value from time series:   113.50     for time:  337.0     to  338.0    

 NO OUTPUT CONTROL FOR STRESS PERIOD    8   TIME STEP    3
RIV   no.    1 value from time series:   101.00     for time:  338.0     to  339.0    
RIV   no.    2 value from time series:   101.00     for time:  338.0     to  339.0    
RIV   no.    3 value from time series:   111.50     for time:  338.0     to  339.0    
RIV   no.    4 value from time series:   111.50     for time:  338.0     to  339.0    
RIV   no.    5 value from time series:   115.10     for time:  338.0     to  339.0    
RIV   no.    6 value from time series:   115.10     for time:  338.0     to  339.0    
RIV   no.    7 value from time series:   104.00     for time:  338.0     to  339.0    
RIV   no.    8 value from time series:   104.00     for time:  338.0     to  339.0    
RIV   no.    9 value from time series:   113.50     for time:  338.0     to  339.0    
RIV   no.   10 value from time series:   113.50     for time:  338.0     to  339.0    
RIV   no.    1 value from time series:   101.00     for time:  338.0     to  339.0    
RIV   no.    2 value from time series:   101.00     for time:  338.0     to  339.0    
RIV   no.    3 value from time series:   111.50     for time:  338.0     to  339.0    
RIV   no.    4 value from time series:   111.50     for time:  338.0     to  339.0    
RIV   no.    5 value from time series:   115.10     for time:  338.0     to  339.0    
RIV   no.    6 value from time series:   115.10     for time:  338.0     to  339.0    
RIV   no.    7 value from time series:   104.00     for time:  338.0     to  339.0    
RIV   no.    8 value from time series:   104.00     for time:  338.0     to  339.0    
RIV   no.    9 value from time series:   113.50     for time:  338.0     to  339.0    
RIV   no.   10 value from time series:   113.50     for time:  338.0     to  339.0    

 NO OUTPUT CONTROL FOR STRESS PERIOD    8   TIME STEP    4
RIV   no.    1 value from time series:   101.00     for time:  339.0     to  340.0    
RIV   no.    2 value from time series:   101.00     for time:  339.0     to  340.0    
RIV   no.    3 value from time series:   111.50     for time:  339.0     to  340.0    
RIV   no.    4 value from time series:   111.50     for time:  339.0     to  340.0    
RIV   no.    5 value from time series:   115.10     for time:  339.0     to  340.0    
RIV   no.    6 value from time series:   115.10     for time:  339.0     to  340.0    
RIV   no.    7 value from time series:   104.00     for time:  339.0     to  340.0    
RIV   no.    8 value from time series:   104.00     for time:  339.0     to  340.0    
RIV   no.    9 value from time series:   113.50     for time:  339.0     to  340.0    
RIV   no.   10 value from time series:   113.50     for time:  339.0     to  340.0    
RIV   no.    1 value from time series:   101.00     for time:  339.0     to  340.0    
RIV   no.    2 value from time series:   101.00     for time:  339.0     to  340.0    
RIV   no.    3 value from time series:   111.50     for time:  339.0     to  340.0    
RIV   no.    4 value from time series:   111.50     for time:  339.0     to  340.0    
RIV   no.    5 value from time series:   115.10     for time:  339.0     to  340.0    
RIV   no.    6 value from time series:   115.10     for time:  339.0     to  340.0    
RIV   no.    7 value from time series:   104.00     for time:  339.0     to  340.0    
RIV   no.    8 value from time series:   104.00     for time:  339.0     to  340.0    
RIV   no.    9 value from time series:   113.50     for time:  339.0     to  340.0    
RIV   no.   10 value from time series:   113.50     for time:  339.0     to  340.0    

 NO OUTPUT CONTROL FOR STRESS PERIOD    8   TIME STEP    5
RIV   no.    1 value from time series:   101.00     for time:  340.0     to  341.0    
RIV   no.    2 value from time series:   101.00     for time:  340.0     to  341.0    
RIV   no.    3 value from time series:   111.50     for time:  340.0     to  341.0    
RIV   no.    4 value from time series:   111.50     for time:  340.0     to  341.0    
RIV   no.    5 value from time series:   115.10     for time:  340.0     to  341.0    
RIV   no.    6 value from time series:   115.10     for time:  340.0     to  341.0    
RIV   no.    7 value from time series:   104.00     for time:  340.0     to  341.0    
RIV   no.    8 value from time series:   104.00     for time:  340.0     to  341.0    
RIV   no.    9 value from time series:   113.50     for time:  340.0     to  341.0    
RIV   no.   10 value from time series:   113.50     for time:  340.0     to  341.0    
RIV   no.    1 value from time series:   101.00     for time:  340.0     to  341.0    
RIV   no.    2 value from time series:   101.00     for time:  340.0     to  341.0    
RIV   no.    3 value from time series:   111.50     for time:  340.0     to  341.0    
RIV   no.    4 value from time series:   111.50     for time:  340.0     to  341.0    
RIV   no.    5 value from time series:   115.10     for time:  340.0     to  341.0    
RIV   no.    6 value from time series:   115.10     for time:  340.0     to  341.0    
RIV   no.    7 value from time series:   104.00     for time:  340.0     to  341.0    
RIV   no.    8 value from time series:   104.00     for time:  340.0     to  341.0    
RIV   no.    9 value from time series:   113.50     for time:  340.0     to  341.0    
RIV   no.   10 value from time series:   113.50     for time:  340.0     to  341.0    

 NO OUTPUT CONTROL FOR STRESS PERIOD    8   TIME STEP    6
RIV   no.    1 value from time series:   101.00     for time:  341.0     to  342.0    
RIV   no.    2 value from time series:   101.00     for time:  341.0     to  342.0    
RIV   no.    3 value from time series:   111.50     for time:  341.0     to  342.0    
RIV   no.    4 value from time series:   111.50     for time:  341.0     to  342.0    
RIV   no.    5 value from time series:   115.10     for time:  341.0     to  342.0    
RIV   no.    6 value from time series:   115.10     for time:  341.0     to  342.0    
RIV   no.    7 value from time series:   104.00     for time:  341.0     to  342.0    
RIV   no.    8 value from time series:   104.00     for time:  341.0     to  342.0    
RIV   no.    9 value from time series:   113.50     for time:  341.0     to  342.0    
RIV   no.   10 value from time series:   113.50     for time:  341.0     to  342.0    
RIV   no.    1 value from time series:   101.00     for time:  341.0     to  342.0    
RIV   no.    2 value from time series:   101.00     for time:  341.0     to  342.0    
RIV   no.    3 value from time series:   111.50     for time:  341.0     to  342.0    
RIV   no.    4 value from time series:   111.50     for time:  341.0     to  342.0    
RIV   no.    5 value from time series:   115.10     for time:  341.0     to  342.0    
RIV   no.    6 value from time series:   115.10     for time:  341.0     to  342.0    
RIV   no.    7 value from time series:   104.00     for time:  341.0     to  342.0    
RIV   no.    8 value from time series:   104.00     for time:  341.0     to  342.0    
RIV   no.    9 value from time series:   113.50     for time:  341.0     to  342.0    
RIV   no.   10 value from time series:   113.50     for time:  341.0     to  342.0    

 NO OUTPUT CONTROL FOR STRESS PERIOD    8   TIME STEP    7
RIV   no.    1 value from time series:   101.00     for time:  342.0     to  343.0    
RIV   no.    2 value from time series:   101.00     for time:  342.0     to  343.0    
RIV   no.    3 value from time series:   111.50     for time:  342.0     to  343.0    
RIV   no.    4 value from time series:   111.50     for time:  342.0     to  343.0    
RIV   no.    5 value from time series:   115.10     for time:  342.0     to  343.0    
RIV   no.    6 value from time series:   115.10     for time:  342.0     to  343.0    
RIV   no.    7 value from time series:   104.00     for time:  342.0     to  343.0    
RIV   no.    8 value from time series:   104.00     for time:  342.0     to  343.0    
RIV   no.    9 value from time series:   113.50     for time:  342.0     to  343.0    
RIV   no.   10 value from time series:   113.50     for time:  342.0     to  343.0    
RIV   no.    1 value from time series:   101.00     for time:  342.0     to  343.0    
RIV   no.    2 value from time series:   101.00     for time:  342.0     to  343.0    
RIV   no.    3 value from time series:   111.50     for time:  342.0     to  343.0    
RIV   no.    4 value from time series:   111.50     for time:  342.0     to  343.0    
RIV   no.    5 value from time series:   115.10     for time:  342.0     to  343.0    
RIV   no.    6 value from time series:   115.10     for time:  342.0     to  343.0    
RIV   no.    7 value from time series:   104.00     for time:  342.0     to  343.0    
RIV   no.    8 value from time series:   104.00     for time:  342.0     to  343.0    
RIV   no.    9 value from time series:   113.50     for time:  342.0     to  343.0    
RIV   no.   10 value from time series:   113.50     for time:  342.0     to  343.0    

 NO OUTPUT CONTROL FOR STRESS PERIOD    8   TIME STEP    8
RIV   no.    1 value from time series:   101.00     for time:  343.0     to  344.0    
RIV   no.    2 value from time series:   101.00     for time:  343.0     to  344.0    
RIV   no.    3 value from time series:   111.50     for time:  343.0     to  344.0    
RIV   no.    4 value from time series:   111.50     for time:  343.0     to  344.0    
RIV   no.    5 value from time series:   115.10     for time:  343.0     to  344.0    
RIV   no.    6 value from time series:   115.10     for time:  343.0     to  344.0    
RIV   no.    7 value from time series:   104.00     for time:  343.0     to  344.0    
RIV   no.    8 value from time series:   104.00     for time:  343.0     to  344.0    
RIV   no.    9 value from time series:   113.50     for time:  343.0     to  344.0    
RIV   no.   10 value from time series:   113.50     for time:  343.0     to  344.0    
RIV   no.    1 value from time series:   101.00     for time:  343.0     to  344.0    
RIV   no.    2 value from time series:   101.00     for time:  343.0     to  344.0    
RIV   no.    3 value from time series:   111.50     for time:  343.0     to  344.0    
RIV   no.    4 value from time series:   111.50     for time:  343.0     to  344.0    
RIV   no.    5 value from time series:   115.10     for time:  343.0     to  344.0    
RIV   no.    6 value from time series:   115.10     for time:  343.0     to  344.0    
RIV   no.    7 value from time series:   104.00     for time:  343.0     to  344.0    
RIV   no.    8 value from time series:   104.00     for time:  343.0     to  344.0    
RIV   no.    9 value from time series:   113.50     for time:  343.0     to  344.0    
RIV   no.   10 value from time series:   113.50     for time:  343.0     to  344.0    

 NO OUTPUT CONTROL FOR STRESS PERIOD    8   TIME STEP    9
RIV   no.    1 value from time series:   101.00     for time:  344.0     to  345.0    
RIV   no.    2 value from time series:   101.00     for time:  344.0     to  345.0    
RIV   no.    3 value from time series:   111.50     for time:  344.0     to  345.0    
RIV   no.    4 value from time series:   111.50     for time:  344.0     to  345.0    
RIV   no.    5 value from time series:   115.10     for time:  344.0     to  345.0    
RIV   no.    6 value from time series:   115.10     for time:  344.0     to  345.0    
RIV   no.    7 value from time series:   104.00     for time:  344.0     to  345.0    
RIV   no.    8 value from time series:   104.00     for time:  344.0     to  345.0    
RIV   no.    9 value from time series:   113.50     for time:  344.0     to  345.0    
RIV   no.   10 value from time series:   113.50     for time:  344.0     to  345.0    
RIV   no.    1 value from time series:   101.00     for time:  344.0     to  345.0    
RIV   no.    2 value from time series:   101.00     for time:  344.0     to  345.0    
RIV   no.    3 value from time series:   111.50     for time:  344.0     to  345.0    
RIV   no.    4 value from time series:   111.50     for time:  344.0     to  345.0    
RIV   no.    5 value from time series:   115.10     for time:  344.0     to  345.0    
RIV   no.    6 value from time series:   115.10     for time:  344.0     to  345.0    
RIV   no.    7 value from time series:   104.00     for time:  344.0     to  345.0    
RIV   no.    8 value from time series:   104.00     for time:  344.0     to  345.0    
RIV   no.    9 value from time series:   113.50     for time:  344.0     to  345.0    
RIV   no.   10 value from time series:   113.50     for time:  344.0     to  345.0    

 NO OUTPUT CONTROL FOR STRESS PERIOD    8   TIME STEP   10
RIV   no.    1 value from time series:   101.00     for time:  345.0     to  346.0    
RIV   no.    2 value from time series:   101.00     for time:  345.0     to  346.0    
RIV   no.    3 value from time series:   111.50     for time:  345.0     to  346.0    
RIV   no.    4 value from time series:   111.50     for time:  345.0     to  346.0    
RIV   no.    5 value from time series:   115.10     for time:  345.0     to  346.0    
RIV   no.    6 value from time series:   115.10     for time:  345.0     to  346.0    
RIV   no.    7 value from time series:   104.00     for time:  345.0     to  346.0    
RIV   no.    8 value from time series:   104.00     for time:  345.0     to  346.0    
RIV   no.    9 value from time series:   113.50     for time:  345.0     to  346.0    
RIV   no.   10 value from time series:   113.50     for time:  345.0     to  346.0    
RIV   no.    1 value from time series:   101.00     for time:  345.0     to  346.0    
RIV   no.    2 value from time series:   101.00     for time:  345.0     to  346.0    
RIV   no.    3 value from time series:   111.50     for time:  345.0     to  346.0    
RIV   no.    4 value from time series:   111.50     for time:  345.0     to  346.0    
RIV   no.    5 value from time series:   115.10     for time:  345.0     to  346.0    
RIV   no.    6 value from time series:   115.10     for time:  345.0     to  346.0    
RIV   no.    7 value from time series:   104.00     for time:  345.0     to  346.0    
RIV   no.    8 value from time series:   104.00     for time:  345.0     to  346.0    
RIV   no.    9 value from time series:   113.50     for time:  345.0     to  346.0    
RIV   no.   10 value from time series:   113.50     for time:  345.0     to  346.0    

 NO OUTPUT CONTROL FOR STRESS PERIOD    8   TIME STEP   11
RIV   no.    1 value from time series:   101.00     for time:  346.0     to  347.0    
RIV   no.    2 value from time series:   101.00     for time:  346.0     to  347.0    
RIV   no.    3 value from time series:   111.50     for time:  346.0     to  347.0    
RIV   no.    4 value from time series:   111.50     for time:  346.0     to  347.0    
RIV   no.    5 value from time series:   115.10     for time:  346.0     to  347.0    
RIV   no.    6 value from time series:   115.10     for time:  346.0     to  347.0    
RIV   no.    7 value from time series:   104.00     for time:  346.0     to  347.0    
RIV   no.    8 value from time series:   104.00     for time:  346.0     to  347.0    
RIV   no.    9 value from time series:   113.50     for time:  346.0     to  347.0    
RIV   no.   10 value from time series:   113.50     for time:  346.0     to  347.0    
RIV   no.    1 value from time series:   101.00     for time:  346.0     to  347.0    
RIV   no.    2 value from time series:   101.00     for time:  346.0     to  347.0    
RIV   no.    3 value from time series:   111.50     for time:  346.0     to  347.0    
RIV   no.    4 value from time series:   111.50     for time:  346.0     to  347.0    
RIV   no.    5 value from time series:   115.10     for time:  346.0     to  347.0    
RIV   no.    6 value from time series:   115.10     for time:  346.0     to  347.0    
RIV   no.    7 value from time series:   104.00     for time:  346.0     to  347.0    
RIV   no.    8 value from time series:   104.00     for time:  346.0     to  347.0    
RIV   no.    9 value from time series:   113.50     for time:  346.0     to  347.0    
RIV   no.   10 value from time series:   113.50     for time:  346.0     to  347.0    

 NO OUTPUT CONTROL FOR STRESS PERIOD    8   TIME STEP   12
RIV   no.    1 value from time series:   101.00     for time:  347.0     to  348.0    
RIV   no.    2 value from time series:   101.00     for time:  347.0     to  348.0    
RIV   no.    3 value from time series:   111.50     for time:  347.0     to  348.0    
RIV   no.    4 value from time series:   111.50     for time:  347.0     to  348.0    
RIV   no.    5 value from time series:   115.10     for time:  347.0     to  348.0    
RIV   no.    6 value from time series:   115.10     for time:  347.0     to  348.0    
RIV   no.    7 value from time series:   104.00     for time:  347.0     to  348.0    
RIV   no.    8 value from time series:   104.00     for time:  347.0     to  348.0    
RIV   no.    9 value from time series:   113.50     for time:  347.0     to  348.0    
RIV   no.   10 value from time series:   113.50     for time:  347.0     to  348.0    
RIV   no.    1 value from time series:   101.00     for time:  347.0     to  348.0    
RIV   no.    2 value from time series:   101.00     for time:  347.0     to  348.0    
RIV   no.    3 value from time series:   111.50     for time:  347.0     to  348.0    
RIV   no.    4 value from time series:   111.50     for time:  347.0     to  348.0    
RIV   no.    5 value from time series:   115.10     for time:  347.0     to  348.0    
RIV   no.    6 value from time series:   115.10     for time:  347.0     to  348.0    
RIV   no.    7 value from time series:   104.00     for time:  347.0     to  348.0    
RIV   no.    8 value from time series:   104.00     for time:  347.0     to  348.0    
RIV   no.    9 value from time series:   113.50     for time:  347.0     to  348.0    
RIV   no.   10 value from time series:   113.50     for time:  347.0     to  348.0    

 NO OUTPUT CONTROL FOR STRESS PERIOD    8   TIME STEP   13
RIV   no.    1 value from time series:   101.00     for time:  348.0     to  349.0    
RIV   no.    2 value from time series:   101.00     for time:  348.0     to  349.0    
RIV   no.    3 value from time series:   111.50     for time:  348.0     to  349.0    
RIV   no.    4 value from time series:   111.50     for time:  348.0     to  349.0    
RIV   no.    5 value from time series:   115.10     for time:  348.0     to  349.0    
RIV   no.    6 value from time series:   115.10     for time:  348.0     to  349.0    
RIV   no.    7 value from time series:   104.00     for time:  348.0     to  349.0    
RIV   no.    8 value from time series:   104.00     for time:  348.0     to  349.0    
RIV   no.    9 value from time series:   113.50     for time:  348.0     to  349.0    
RIV   no.   10 value from time series:   113.50     for time:  348.0     to  349.0    
RIV   no.    1 value from time series:   101.00     for time:  348.0     to  349.0    
RIV   no.    2 value from time series:   101.00     for time:  348.0     to  349.0    
RIV   no.    3 value from time series:   111.50     for time:  348.0     to  349.0    
RIV   no.    4 value from time series:   111.50     for time:  348.0     to  349.0    
RIV   no.    5 value from time series:   115.10     for time:  348.0     to  349.0    
RIV   no.    6 value from time series:   115.10     for time:  348.0     to  349.0    
RIV   no.    7 value from time series:   104.00     for time:  348.0     to  349.0    
RIV   no.    8 value from time series:   104.00     for time:  348.0     to  349.0    
RIV   no.    9 value from time series:   113.50     for time:  348.0     to  349.0    
RIV   no.   10 value from time series:   113.50     for time:  348.0     to  349.0    

 NO OUTPUT CONTROL FOR STRESS PERIOD    8   TIME STEP   14
RIV   no.    1 value from time series:   101.00     for time:  349.0     to  350.0    
RIV   no.    2 value from time series:   101.00     for time:  349.0     to  350.0    
RIV   no.    3 value from time series:   111.50     for time:  349.0     to  350.0    
RIV   no.    4 value from time series:   111.50     for time:  349.0     to  350.0    
RIV   no.    5 value from time series:   115.10     for time:  349.0     to  350.0    
RIV   no.    6 value from time series:   115.10     for time:  349.0     to  350.0    
RIV   no.    7 value from time series:   104.00     for time:  349.0     to  350.0    
RIV   no.    8 value from time series:   104.00     for time:  349.0     to  350.0    
RIV   no.    9 value from time series:   113.50     for time:  349.0     to  350.0    
RIV   no.   10 value from time series:   113.50     for time:  349.0     to  350.0    
RIV   no.    1 value from time series:   101.00     for time:  349.0     to  350.0    
RIV   no.    2 value from time series:   101.00     for time:  349.0     to  350.0    
RIV   no.    3 value from time series:   111.50     for time:  349.0     to  350.0    
RIV   no.    4 value from time series:   111.50     for time:  349.0     to  350.0    
RIV   no.    5 value from time series:   115.10     for time:  349.0     to  350.0    
RIV   no.    6 value from time series:   115.10     for time:  349.0     to  350.0    
RIV   no.    7 value from time series:   104.00     for time:  349.0     to  350.0    
RIV   no.    8 value from time series:   104.00     for time:  349.0     to  350.0    
RIV   no.    9 value from time series:   113.50     for time:  349.0     to  350.0    
RIV   no.   10 value from time series:   113.50     for time:  349.0     to  350.0    

 NO OUTPUT CONTROL FOR STRESS PERIOD    8   TIME STEP   15
RIV   no.    1 value from time series:   101.00     for time:  350.0     to  351.0    
RIV   no.    2 value from time series:   101.00     for time:  350.0     to  351.0    
RIV   no.    3 value from time series:   111.50     for time:  350.0     to  351.0    
RIV   no.    4 value from time series:   111.50     for time:  350.0     to  351.0    
RIV   no.    5 value from time series:   115.10     for time:  350.0     to  351.0    
RIV   no.    6 value from time series:   115.10     for time:  350.0     to  351.0    
RIV   no.    7 value from time series:   104.00     for time:  350.0     to  351.0    
RIV   no.    8 value from time series:   104.00     for time:  350.0     to  351.0    
RIV   no.    9 value from time series:   113.50     for time:  350.0     to  351.0    
RIV   no.   10 value from time series:   113.50     for time:  350.0     to  351.0    
RIV   no.    1 value from time series:   101.00     for time:  350.0     to  351.0    
RIV   no.    2 value from time series:   101.00     for time:  350.0     to  351.0    
RIV   no.    3 value from time series:   111.50     for time:  350.0     to  351.0    
RIV   no.    4 value from time series:   111.50     for time:  350.0     to  351.0    
RIV   no.    5 value from time series:   115.10     for time:  350.0     to  351.0    
RIV   no.    6 value from time series:   115.10     for time:  350.0     to  351.0    
RIV   no.    7 value from time series:   104.00     for time:  350.0     to  351.0    
RIV   no.    8 value from time series:   104.00     for time:  350.0     to  351.0    
RIV   no.    9 value from time series:   113.50     for time:  350.0     to  351.0    
RIV   no.   10 value from time series:   113.50     for time:  350.0     to  351.0    

 NO OUTPUT CONTROL FOR STRESS PERIOD    8   TIME STEP   16
RIV   no.    1 value from time series:   101.00     for time:  351.0     to  352.0    
RIV   no.    2 value from time series:   101.00     for time:  351.0     to  352.0    
RIV   no.    3 value from time series:   111.50     for time:  351.0     to  352.0    
RIV   no.    4 value from time series:   111.50     for time:  351.0     to  352.0    
RIV   no.    5 value from time series:   115.10     for time:  351.0     to  352.0    
RIV   no.    6 value from time series:   115.10     for time:  351.0     to  352.0    
RIV   no.    7 value from time series:   104.00     for time:  351.0     to  352.0    
RIV   no.    8 value from time series:   104.00     for time:  351.0     to  352.0    
RIV   no.    9 value from time series:   113.50     for time:  351.0     to  352.0    
RIV   no.   10 value from time series:   113.50     for time:  351.0     to  352.0    
RIV   no.    1 value from time series:   101.00     for time:  351.0     to  352.0    
RIV   no.    2 value from time series:   101.00     for time:  351.0     to  352.0    
RIV   no.    3 value from time series:   111.50     for time:  351.0     to  352.0    
RIV   no.    4 value from time series:   111.50     for time:  351.0     to  352.0    
RIV   no.    5 value from time series:   115.10     for time:  351.0     to  352.0    
RIV   no.    6 value from time series:   115.10     for time:  351.0     to  352.0    
RIV   no.    7 value from time series:   104.00     for time:  351.0     to  352.0    
RIV   no.    8 value from time series:   104.00     for time:  351.0     to  352.0    
RIV   no.    9 value from time series:   113.50     for time:  351.0     to  352.0    
RIV   no.   10 value from time series:   113.50     for time:  351.0     to  352.0    

 NO OUTPUT CONTROL FOR STRESS PERIOD    8   TIME STEP   17
RIV   no.    1 value from time series:   101.00     for time:  352.0     to  353.0    
RIV   no.    2 value from time series:   101.00     for time:  352.0     to  353.0    
RIV   no.    3 value from time series:   111.50     for time:  352.0     to  353.0    
RIV   no.    4 value from time series:   111.50     for time:  352.0     to  353.0    
RIV   no.    5 value from time series:   115.10     for time:  352.0     to  353.0    
RIV   no.    6 value from time series:   115.10     for time:  352.0     to  353.0    
RIV   no.    7 value from time series:   104.00     for time:  352.0     to  353.0    
RIV   no.    8 value from time series:   104.00     for time:  352.0     to  353.0    
RIV   no.    9 value from time series:   113.50     for time:  352.0     to  353.0    
RIV   no.   10 value from time series:   113.50     for time:  352.0     to  353.0    
RIV   no.    1 value from time series:   101.00     for time:  352.0     to  353.0    
RIV   no.    2 value from time series:   101.00     for time:  352.0     to  353.0    
RIV   no.    3 value from time series:   111.50     for time:  352.0     to  353.0    
RIV   no.    4 value from time series:   111.50     for time:  352.0     to  353.0    
RIV   no.    5 value from time series:   115.10     for time:  352.0     to  353.0    
RIV   no.    6 value from time series:   115.10     for time:  352.0     to  353.0    
RIV   no.    7 value from time series:   104.00     for time:  352.0     to  353.0    
RIV   no.    8 value from time series:   104.00     for time:  352.0     to  353.0    
RIV   no.    9 value from time series:   113.50     for time:  352.0     to  353.0    
RIV   no.   10 value from time series:   113.50     for time:  352.0     to  353.0    

 NO OUTPUT CONTROL FOR STRESS PERIOD    8   TIME STEP   18
RIV   no.    1 value from time series:   101.00     for time:  353.0     to  354.0    
RIV   no.    2 value from time series:   101.00     for time:  353.0     to  354.0    
RIV   no.    3 value from time series:   111.50     for time:  353.0     to  354.0    
RIV   no.    4 value from time series:   111.50     for time:  353.0     to  354.0    
RIV   no.    5 value from time series:   115.10     for time:  353.0     to  354.0    
RIV   no.    6 value from time series:   115.10     for time:  353.0     to  354.0    
RIV   no.    7 value from time series:   104.00     for time:  353.0     to  354.0    
RIV   no.    8 value from time series:   104.00     for time:  353.0     to  354.0    
RIV   no.    9 value from time series:   113.50     for time:  353.0     to  354.0    
RIV   no.   10 value from time series:   113.50     for time:  353.0     to  354.0    
RIV   no.    1 value from time series:   101.00     for time:  353.0     to  354.0    
RIV   no.    2 value from time series:   101.00     for time:  353.0     to  354.0    
RIV   no.    3 value from time series:   111.50     for time:  353.0     to  354.0    
RIV   no.    4 value from time series:   111.50     for time:  353.0     to  354.0    
RIV   no.    5 value from time series:   115.10     for time:  353.0     to  354.0    
RIV   no.    6 value from time series:   115.10     for time:  353.0     to  354.0    
RIV   no.    7 value from time series:   104.00     for time:  353.0     to  354.0    
RIV   no.    8 value from time series:   104.00     for time:  353.0     to  354.0    
RIV   no.    9 value from time series:   113.50     for time:  353.0     to  354.0    
RIV   no.   10 value from time series:   113.50     for time:  353.0     to  354.0    

 NO OUTPUT CONTROL FOR STRESS PERIOD    8   TIME STEP   19
RIV   no.    1 value from time series:   101.00     for time:  354.0     to  355.0    
RIV   no.    2 value from time series:   101.00     for time:  354.0     to  355.0    
RIV   no.    3 value from time series:   111.50     for time:  354.0     to  355.0    
RIV   no.    4 value from time series:   111.50     for time:  354.0     to  355.0    
RIV   no.    5 value from time series:   115.10     for time:  354.0     to  355.0    
RIV   no.    6 value from time series:   115.10     for time:  354.0     to  355.0    
RIV   no.    7 value from time series:   104.00     for time:  354.0     to  355.0    
RIV   no.    8 value from time series:   104.00     for time:  354.0     to  355.0    
RIV   no.    9 value from time series:   113.50     for time:  354.0     to  355.0    
RIV   no.   10 value from time series:   113.50     for time:  354.0     to  355.0    
RIV   no.    1 value from time series:   101.00     for time:  354.0     to  355.0    
RIV   no.    2 value from time series:   101.00     for time:  354.0     to  355.0    
RIV   no.    3 value from time series:   111.50     for time:  354.0     to  355.0    
RIV   no.    4 value from time series:   111.50     for time:  354.0     to  355.0    
RIV   no.    5 value from time series:   115.10     for time:  354.0     to  355.0    
RIV   no.    6 value from time series:   115.10     for time:  354.0     to  355.0    
RIV   no.    7 value from time series:   104.00     for time:  354.0     to  355.0    
RIV   no.    8 value from time series:   104.00     for time:  354.0     to  355.0    
RIV   no.    9 value from time series:   113.50     for time:  354.0     to  355.0    
RIV   no.   10 value from time series:   113.50     for time:  354.0     to  355.0    

 NO OUTPUT CONTROL FOR STRESS PERIOD    8   TIME STEP   20
RIV   no.    1 value from time series:   101.00     for time:  355.0     to  356.0    
RIV   no.    2 value from time series:   101.00     for time:  355.0     to  356.0    
RIV   no.    3 value from time series:   111.50     for time:  355.0     to  356.0    
RIV   no.    4 value from time series:   111.50     for time:  355.0     to  356.0    
RIV   no.    5 value from time series:   115.10     for time:  355.0     to  356.0    
RIV   no.    6 value from time series:   115.10     for time:  355.0     to  356.0    
RIV   no.    7 value from time series:   104.00     for time:  355.0     to  356.0    
RIV   no.    8 value from time series:   104.00     for time:  355.0     to  356.0    
RIV   no.    9 value from time series:   113.50     for time:  355.0     to  356.0    
RIV   no.   10 value from time series:   113.50     for time:  355.0     to  356.0    
RIV   no.    1 value from time series:   101.00     for time:  355.0     to  356.0    
RIV   no.    2 value from time series:   101.00     for time:  355.0     to  356.0    
RIV   no.    3 value from time series:   111.50     for time:  355.0     to  356.0    
RIV   no.    4 value from time series:   111.50     for time:  355.0     to  356.0    
RIV   no.    5 value from time series:   115.10     for time:  355.0     to  356.0    
RIV   no.    6 value from time series:   115.10     for time:  355.0     to  356.0    
RIV   no.    7 value from time series:   104.00     for time:  355.0     to  356.0    
RIV   no.    8 value from time series:   104.00     for time:  355.0     to  356.0    
RIV   no.    9 value from time series:   113.50     for time:  355.0     to  356.0    
RIV   no.   10 value from time series:   113.50     for time:  355.0     to  356.0    

 NO OUTPUT CONTROL FOR STRESS PERIOD    8   TIME STEP   21
RIV   no.    1 value from time series:   101.00     for time:  356.0     to  357.0    
RIV   no.    2 value from time series:   101.00     for time:  356.0     to  357.0    
RIV   no.    3 value from time series:   111.50     for time:  356.0     to  357.0    
RIV   no.    4 value from time series:   111.50     for time:  356.0     to  357.0    
RIV   no.    5 value from time series:   115.10     for time:  356.0     to  357.0    
RIV   no.    6 value from time series:   115.10     for time:  356.0     to  357.0    
RIV   no.    7 value from time series:   104.00     for time:  356.0     to  357.0    
RIV   no.    8 value from time series:   104.00     for time:  356.0     to  357.0    
RIV   no.    9 value from time series:   113.50     for time:  356.0     to  357.0    
RIV   no.   10 value from time series:   113.50     for time:  356.0     to  357.0    
RIV   no.    1 value from time series:   101.00     for time:  356.0     to  357.0    
RIV   no.    2 value from time series:   101.00     for time:  356.0     to  357.0    
RIV   no.    3 value from time series:   111.50     for time:  356.0     to  357.0    
RIV   no.    4 value from time series:   111.50     for time:  356.0     to  357.0    
RIV   no.    5 value from time series:   115.10     for time:  356.0     to  357.0    
RIV   no.    6 value from time series:   115.10     for time:  356.0     to  357.0    
RIV   no.    7 value from time series:   104.00     for time:  356.0     to  357.0    
RIV   no.    8 value from time series:   104.00     for time:  356.0     to  357.0    
RIV   no.    9 value from time series:   113.50     for time:  356.0     to  357.0    
RIV   no.   10 value from time series:   113.50     for time:  356.0     to  357.0    

 NO OUTPUT CONTROL FOR STRESS PERIOD    8   TIME STEP   22
RIV   no.    1 value from time series:   101.00     for time:  357.0     to  358.0    
RIV   no.    2 value from time series:   101.00     for time:  357.0     to  358.0    
RIV   no.    3 value from time series:   111.50     for time:  357.0     to  358.0    
RIV   no.    4 value from time series:   111.50     for time:  357.0     to  358.0    
RIV   no.    5 value from time series:   115.10     for time:  357.0     to  358.0    
RIV   no.    6 value from time series:   115.10     for time:  357.0     to  358.0    
RIV   no.    7 value from time series:   104.00     for time:  357.0     to  358.0    
RIV   no.    8 value from time series:   104.00     for time:  357.0     to  358.0    
RIV   no.    9 value from time series:   113.50     for time:  357.0     to  358.0    
RIV   no.   10 value from time series:   113.50     for time:  357.0     to  358.0    
RIV   no.    1 value from time series:   101.00     for time:  357.0     to  358.0    
RIV   no.    2 value from time series:   101.00     for time:  357.0     to  358.0    
RIV   no.    3 value from time series:   111.50     for time:  357.0     to  358.0    
RIV   no.    4 value from time series:   111.50     for time:  357.0     to  358.0    
RIV   no.    5 value from time series:   115.10     for time:  357.0     to  358.0    
RIV   no.    6 value from time series:   115.10     for time:  357.0     to  358.0    
RIV   no.    7 value from time series:   104.00     for time:  357.0     to  358.0    
RIV   no.    8 value from time series:   104.00     for time:  357.0     to  358.0    
RIV   no.    9 value from time series:   113.50     for time:  357.0     to  358.0    
RIV   no.   10 value from time series:   113.50     for time:  357.0     to  358.0    

 NO OUTPUT CONTROL FOR STRESS PERIOD    8   TIME STEP   23
RIV   no.    1 value from time series:   101.00     for time:  358.0     to  359.0    
RIV   no.    2 value from time series:   101.00     for time:  358.0     to  359.0    
RIV   no.    3 value from time series:   111.50     for time:  358.0     to  359.0    
RIV   no.    4 value from time series:   111.50     for time:  358.0     to  359.0    
RIV   no.    5 value from time series:   115.10     for time:  358.0     to  359.0    
RIV   no.    6 value from time series:   115.10     for time:  358.0     to  359.0    
RIV   no.    7 value from time series:   104.00     for time:  358.0     to  359.0    
RIV   no.    8 value from time series:   104.00     for time:  358.0     to  359.0    
RIV   no.    9 value from time series:   113.50     for time:  358.0     to  359.0    
RIV   no.   10 value from time series:   113.50     for time:  358.0     to  359.0    
RIV   no.    1 value from time series:   101.00     for time:  358.0     to  359.0    
RIV   no.    2 value from time series:   101.00     for time:  358.0     to  359.0    
RIV   no.    3 value from time series:   111.50     for time:  358.0     to  359.0    
RIV   no.    4 value from time series:   111.50     for time:  358.0     to  359.0    
RIV   no.    5 value from time series:   115.10     for time:  358.0     to  359.0    
RIV   no.    6 value from time series:   115.10     for time:  358.0     to  359.0    
RIV   no.    7 value from time series:   104.00     for time:  358.0     to  359.0    
RIV   no.    8 value from time series:   104.00     for time:  358.0     to  359.0    
RIV   no.    9 value from time series:   113.50     for time:  358.0     to  359.0    
RIV   no.   10 value from time series:   113.50     for time:  358.0     to  359.0    

 NO OUTPUT CONTROL FOR STRESS PERIOD    8   TIME STEP   24
RIV   no.    1 value from time series:   101.00     for time:  359.0     to  360.0    
RIV   no.    2 value from time series:   101.00     for time:  359.0     to  360.0    
RIV   no.    3 value from time series:   111.50     for time:  359.0     to  360.0    
RIV   no.    4 value from time series:   111.50     for time:  359.0     to  360.0    
RIV   no.    5 value from time series:   115.10     for time:  359.0     to  360.0    
RIV   no.    6 value from time series:   115.10     for time:  359.0     to  360.0    
RIV   no.    7 value from time series:   104.00     for time:  359.0     to  360.0    
RIV   no.    8 value from time series:   104.00     for time:  359.0     to  360.0    
RIV   no.    9 value from time series:   113.50     for time:  359.0     to  360.0    
RIV   no.   10 value from time series:   113.50     for time:  359.0     to  360.0    
RIV   no.    1 value from time series:   101.00     for time:  359.0     to  360.0    
RIV   no.    2 value from time series:   101.00     for time:  359.0     to  360.0    
RIV   no.    3 value from time series:   111.50     for time:  359.0     to  360.0    
RIV   no.    4 value from time series:   111.50     for time:  359.0     to  360.0    
RIV   no.    5 value from time series:   115.10     for time:  359.0     to  360.0    
RIV   no.    6 value from time series:   115.10     for time:  359.0     to  360.0    
RIV   no.    7 value from time series:   104.00     for time:  359.0     to  360.0    
RIV   no.    8 value from time series:   104.00     for time:  359.0     to  360.0    
RIV   no.    9 value from time series:   113.50     for time:  359.0     to  360.0    
RIV   no.   10 value from time series:   113.50     for time:  359.0     to  360.0    

 NO OUTPUT CONTROL FOR STRESS PERIOD    8   TIME STEP   25
RIV   no.    1 value from time series:   101.00     for time:  360.0     to  361.0    
RIV   no.    2 value from time series:   101.00     for time:  360.0     to  361.0    
RIV   no.    3 value from time series:   111.50     for time:  360.0     to  361.0    
RIV   no.    4 value from time series:   111.50     for time:  360.0     to  361.0    
RIV   no.    5 value from time series:   115.10     for time:  360.0     to  361.0    
RIV   no.    6 value from time series:   115.10     for time:  360.0     to  361.0    
RIV   no.    7 value from time series:   104.00     for time:  360.0     to  361.0    
RIV   no.    8 value from time series:   104.00     for time:  360.0     to  361.0    
RIV   no.    9 value from time series:   113.50     for time:  360.0     to  361.0    
RIV   no.   10 value from time series:   113.50     for time:  360.0     to  361.0    
RIV   no.    1 value from time series:   101.00     for time:  360.0     to  361.0    
RIV   no.    2 value from time series:   101.00     for time:  360.0     to  361.0    
RIV   no.    3 value from time series:   111.50     for time:  360.0     to  361.0    
RIV   no.    4 value from time series:   111.50     for time:  360.0     to  361.0    
RIV   no.    5 value from time series:   115.10     for time:  360.0     to  361.0    
RIV   no.    6 value from time series:   115.10     for time:  360.0     to  361.0    
RIV   no.    7 value from time series:   104.00     for time:  360.0     to  361.0    
RIV   no.    8 value from time series:   104.00     for time:  360.0     to  361.0    
RIV   no.    9 value from time series:   113.50     for time:  360.0     to  361.0    
RIV   no.   10 value from time series:   113.50     for time:  360.0     to  361.0    

 NO OUTPUT CONTROL FOR STRESS PERIOD    8   TIME STEP   26
RIV   no.    1 value from time series:   101.00     for time:  361.0     to  362.0    
RIV   no.    2 value from time series:   101.00     for time:  361.0     to  362.0    
RIV   no.    3 value from time series:   111.50     for time:  361.0     to  362.0    
RIV   no.    4 value from time series:   111.50     for time:  361.0     to  362.0    
RIV   no.    5 value from time series:   115.10     for time:  361.0     to  362.0    
RIV   no.    6 value from time series:   115.10     for time:  361.0     to  362.0    
RIV   no.    7 value from time series:   104.00     for time:  361.0     to  362.0    
RIV   no.    8 value from time series:   104.00     for time:  361.0     to  362.0    
RIV   no.    9 value from time series:   113.50     for time:  361.0     to  362.0    
RIV   no.   10 value from time series:   113.50     for time:  361.0     to  362.0    
RIV   no.    1 value from time series:   101.00     for time:  361.0     to  362.0    
RIV   no.    2 value from time series:   101.00     for time:  361.0     to  362.0    
RIV   no.    3 value from time series:   111.50     for time:  361.0     to  362.0    
RIV   no.    4 value from time series:   111.50     for time:  361.0     to  362.0    
RIV   no.    5 value from time series:   115.10     for time:  361.0     to  362.0    
RIV   no.    6 value from time series:   115.10     for time:  361.0     to  362.0    
RIV   no.    7 value from time series:   104.00     for time:  361.0     to  362.0    
RIV   no.    8 value from time series:   104.00     for time:  361.0     to  362.0    
RIV   no.    9 value from time series:   113.50     for time:  361.0     to  362.0    
RIV   no.   10 value from time series:   113.50     for time:  361.0     to  362.0    

 NO OUTPUT CONTROL FOR STRESS PERIOD    8   TIME STEP   27
RIV   no.    1 value from time series:   101.00     for time:  362.0     to  363.0    
RIV   no.    2 value from time series:   101.00     for time:  362.0     to  363.0    
RIV   no.    3 value from time series:   111.50     for time:  362.0     to  363.0    
RIV   no.    4 value from time series:   111.50     for time:  362.0     to  363.0    
RIV   no.    5 value from time series:   115.10     for time:  362.0     to  363.0    
RIV   no.    6 value from time series:   115.10     for time:  362.0     to  363.0    
RIV   no.    7 value from time series:   104.00     for time:  362.0     to  363.0    
RIV   no.    8 value from time series:   104.00     for time:  362.0     to  363.0    
RIV   no.    9 value from time series:   113.50     for time:  362.0     to  363.0    
RIV   no.   10 value from time series:   113.50     for time:  362.0     to  363.0    
RIV   no.    1 value from time series:   101.00     for time:  362.0     to  363.0    
RIV   no.    2 value from time series:   101.00     for time:  362.0     to  363.0    
RIV   no.    3 value from time series:   111.50     for time:  362.0     to  363.0    
RIV   no.    4 value from time series:   111.50     for time:  362.0     to  363.0    
RIV   no.    5 value from time series:   115.10     for time:  362.0     to  363.0    
RIV   no.    6 value from time series:   115.10     for time:  362.0     to  363.0    
RIV   no.    7 value from time series:   104.00     for time:  362.0     to  363.0    
RIV   no.    8 value from time series:   104.00     for time:  362.0     to  363.0    
RIV   no.    9 value from time series:   113.50     for time:  362.0     to  363.0    
RIV   no.   10 value from time series:   113.50     for time:  362.0     to  363.0    

 NO OUTPUT CONTROL FOR STRESS PERIOD    8   TIME STEP   28
RIV   no.    1 value from time series:   101.00     for time:  363.0     to  364.0    
RIV   no.    2 value from time series:   101.00     for time:  363.0     to  364.0    
RIV   no.    3 value from time series:   111.50     for time:  363.0     to  364.0    
RIV   no.    4 value from time series:   111.50     for time:  363.0     to  364.0    
RIV   no.    5 value from time series:   115.10     for time:  363.0     to  364.0    
RIV   no.    6 value from time series:   115.10     for time:  363.0     to  364.0    
RIV   no.    7 value from time series:   104.00     for time:  363.0     to  364.0    
RIV   no.    8 value from time series:   104.00     for time:  363.0     to  364.0    
RIV   no.    9 value from time series:   113.50     for time:  363.0     to  364.0    
RIV   no.   10 value from time series:   113.50     for time:  363.0     to  364.0    
RIV   no.    1 value from time series:   101.00     for time:  363.0     to  364.0    
RIV   no.    2 value from time series:   101.00     for time:  363.0     to  364.0    
RIV   no.    3 value from time series:   111.50     for time:  363.0     to  364.0    
RIV   no.    4 value from time series:   111.50     for time:  363.0     to  364.0    
RIV   no.    5 value from time series:   115.10     for time:  363.0     to  364.0    
RIV   no.    6 value from time series:   115.10     for time:  363.0     to  364.0    
RIV   no.    7 value from time series:   104.00     for time:  363.0     to  364.0    
RIV   no.    8 value from time series:   104.00     for time:  363.0     to  364.0    
RIV   no.    9 value from time series:   113.50     for time:  363.0     to  364.0    
RIV   no.   10 value from time series:   113.50     for time:  363.0     to  364.0    

 NO OUTPUT CONTROL FOR STRESS PERIOD    8   TIME STEP   29
RIV   no.    1 value from time series:   101.00     for time:  364.0     to  365.0    
RIV   no.    2 value from time series:   101.00     for time:  364.0     to  365.0    
RIV   no.    3 value from time series:   111.50     for time:  364.0     to  365.0    
RIV   no.    4 value from time series:   111.50     for time:  364.0     to  365.0    
RIV   no.    5 value from time series:   115.10     for time:  364.0     to  365.0    
RIV   no.    6 value from time series:   115.10     for time:  364.0     to  365.0    
RIV   no.    7 value from time series:   104.00     for time:  364.0     to  365.0    
RIV   no.    8 value from time series:   104.00     for time:  364.0     to  365.0    
RIV   no.    9 value from time series:   113.50     for time:  364.0     to  365.0    
RIV   no.   10 value from time series:   113.50     for time:  364.0     to  365.0    
RIV   no.    1 value from time series:   101.00     for time:  364.0     to  365.0    
RIV   no.    2 value from time series:   101.00     for time:  364.0     to  365.0    
RIV   no.    3 value from time series:   111.50     for time:  364.0     to  365.0    
RIV   no.    4 value from time series:   111.50     for time:  364.0     to  365.0    
RIV   no.    5 value from time series:   115.10     for time:  364.0     to  365.0    
RIV   no.    6 value from time series:   115.10     for time:  364.0     to  365.0    
RIV   no.    7 value from time series:   104.00     for time:  364.0     to  365.0    
RIV   no.    8 value from time series:   104.00     for time:  364.0     to  365.0    
RIV   no.    9 value from time series:   113.50     for time:  364.0     to  365.0    
RIV   no.   10 value from time series:   113.50     for time:  364.0     to  365.0    

 NO OUTPUT CONTROL FOR STRESS PERIOD    8   TIME STEP   30
RIV   no.    1 value from time series:   101.00     for time:  365.0     to  366.0    
RIV   no.    2 value from time series:   101.00     for time:  365.0     to  366.0    
RIV   no.    3 value from time series:   111.50     for time:  365.0     to  366.0    
RIV   no.    4 value from time series:   111.50     for time:  365.0     to  366.0    
RIV   no.    5 value from time series:   115.10     for time:  365.0     to  366.0    
RIV   no.    6 value from time series:   115.10     for time:  365.0     to  366.0    
RIV   no.    7 value from time series:   104.00     for time:  365.0     to  366.0    
RIV   no.    8 value from time series:   104.00     for time:  365.0     to  366.0    
RIV   no.    9 value from time series:   113.50     for time:  365.0     to  366.0    
RIV   no.   10 value from time series:   113.50     for time:  365.0     to  366.0    
RIV   no.    1 value from time series:   101.00     for time:  365.0     to  366.0    
RIV   no.    2 value from time series:   101.00     for time:  365.0     to  366.0    
RIV   no.    3 value from time series:   111.50     for time:  365.0     to  366.0    
RIV   no.    4 value from time series:   111.50     for time:  365.0     to  366.0    
RIV   no.    5 value from time series:   115.10     for time:  365.0     to  366.0    
RIV   no.    6 value from time series:   115.10     for time:  365.0     to  366.0    
RIV   no.    7 value from time series:   104.00     for time:  365.0     to  366.0    
RIV   no.    8 value from time series:   104.00     for time:  365.0     to  366.0    
RIV   no.    9 value from time series:   113.50     for time:  365.0     to  366.0    
RIV   no.   10 value from time series:   113.50     for time:  365.0     to  366.0    

 OUTPUT CONTROL FOR STRESS PERIOD    8   TIME STEP   31
    PRINT BUDGET
    PRINT HEAD
    PRINT HEAD FOR ALL LAYERS
    SAVE BUDGET
    SAVE HEAD
    SAVE HEAD FOR ALL LAYERS
 UBDSV1 SAVING          STORAGE ON UNIT   1016 AT TIME STEP     31, STRESS PERIOD      8
 UBDSV1 SAVING FLOW RIGHT FACE  ON UNIT   1016 AT TIME STEP     31, STRESS PERIOD      8
 UBDSV1 SAVING FLOW FRONT FACE  ON UNIT   1016 AT TIME STEP     31, STRESS PERIOD      8
 UBDSV1 SAVING FLOW LOWER FACE  ON UNIT   1016 AT TIME STEP     31, STRESS PERIOD      8
 UBDSV4 SAVING WELLS NEAR RIVER ON UNIT   1016 AT TIME STEP     31, STRESS PERIOD      8
 UBDSV4 SAVING RIVER            ON UNIT   1016 AT TIME STEP     31, STRESS PERIOD      8

 RIVER              PERIOD  8   STEP 31
 BOUNDARY      1   LAYER   1   ROW     1   COL    15   RATE    -4839.91    
 BOUNDARY      2   LAYER   1   ROW     2   COL    15   RATE    -5966.19      RIV2
 BOUNDARY      3   LAYER   1   ROW     3   COL    15   RATE    -2233.21      RIV3
 BOUNDARY      4   LAYER   1   ROW     4   COL    15   RATE    -3695.93    
 BOUNDARY      5   LAYER   1   ROW     5   COL    15   RATE    -2331.48    
 BOUNDARY      6   LAYER   1   ROW     6   COL    15   RATE    -1679.00    
 BOUNDARY      7   LAYER   1   ROW     7   COL    15   RATE    -6165.92      RIVX
 BOUNDARY      8   LAYER   1   ROW     8   COL    15   RATE    -6021.01      RIVX
 BOUNDARY      9   LAYER   1   ROW     9   COL    15   RATE    -2236.65      RIVX
 BOUNDARY     10   LAYER   1   ROW    10   COL    15   RATE    -3146.07    

 GHB LAKES          PERIOD  8   STEP 31
 BOUNDARY      1   LAYER   1   ROW     3   COL     1   RATE    -15266.9    
 BOUNDARY      2   LAYER   1   ROW     7   COL     1   RATE    -2461.92      GHB2_UPPER
 BOUNDARY      3   LAYER   1   ROW     7   COL     1   RATE    -13457.6      GHB2_LOWER
 UBDSV4 SAVING RECHARGE         ON UNIT   1016 AT TIME STEP     31, STRESS PERIOD      8

 RECHARGE           PERIOD  8   STEP 31
 BOUNDARY      1   LAYER   1   ROW     1   COL     1   RATE     250.000    
 BOUNDARY      2   LAYER   1   ROW     1   COL     2   RATE     250.000    
 BOUNDARY      3   LAYER   1   ROW     1   COL     3   RATE     250.000    
 BOUNDARY      4   LAYER   1   ROW     1   COL     4   RATE     250.000    
 BOUNDARY      5   LAYER   1   ROW     1   COL     5   RATE     250.000    
 BOUNDARY      6   LAYER   1   ROW     1   COL     6   RATE     250.000    
 BOUNDARY      7   LAYER   1   ROW     1   COL     7   RATE     250.000    
 BOUNDARY      8   LAYER   1   ROW     1   COL     8   RATE     250.000    
 BOUNDARY      9   LAYER   1   ROW     1   COL     9   RATE     250.000    
 BOUNDARY     10   LAYER   1   ROW     1   COL    10   RATE     250.000    
 BOUNDARY     11   LAYER   1   ROW     1   COL    11   RATE     250.000    
 BOUNDARY     12   LAYER   1   ROW     1   COL    12   RATE     250.000    
 BOUNDARY     13   LAYER   1   ROW     1   COL    13   RATE     250.000    
 BOUNDARY     14   LAYER   1   ROW     1   COL    14   RATE     250.000    
 BOUNDARY     15   LAYER   1   ROW     1   COL    15   RATE     250.000    
 BOUNDARY     16   LAYER   1   ROW     2   COL     1   RATE     250.000    
 BOUNDARY     17   LAYER   1   ROW     2   COL     2   RATE     250.000    
 BOUNDARY     18   LAYER   1   ROW     2   COL     3   RATE     250.000    
 BOUNDARY     19   LAYER   1   ROW     2   COL     4   RATE     250.000    
 BOUNDARY     20   LAYER   1   ROW     2   COL     5   RATE     250.000    
 BOUNDARY     21   LAYER   1   ROW     2   COL     6   RATE     250.000    
 BOUNDARY     22   LAYER   1   ROW     2   COL     7   RATE     250.000    
 BOUNDARY     23   LAYER   1   ROW     2   COL     8   RATE     250.000    
 BOUNDARY     24   LAYER   1   ROW     2   COL     9   RATE     250.000    
 BOUNDARY     25   LAYER   1   ROW     2   COL    10   RATE     250.000    
 BOUNDARY     26   LAYER   1   ROW     2   COL    11   RATE     250.000    
 BOUNDARY     27   LAYER   1   ROW     2   COL    12   RATE     250.000    
 BOUNDARY     28   LAYER   1   ROW     2   COL    13   RATE     250.000    
 BOUNDARY     29   LAYER   1   ROW     2   COL    14   RATE     250.000    
 BOUNDARY     30   LAYER   1   ROW     2   COL    15   RATE     250.000    
 BOUNDARY     31   LAYER   1   ROW     3   COL     1   RATE     250.000    
 BOUNDARY     32   LAYER   1   ROW     3   COL     2   RATE     250.000    
 BOUNDARY     33   LAYER   1   ROW     3   COL     3   RATE     250.000    
 BOUNDARY     34   LAYER   1   ROW     3   COL     4   RATE     250.000    
 BOUNDARY     35   LAYER   1   ROW     3   COL     5   RATE     250.000    
 BOUNDARY     36   LAYER   1   ROW     3   COL     6   RATE     250.000    
 BOUNDARY     37   LAYER   1   ROW     3   COL     7   RATE     250.000    
 BOUNDARY     38   LAYER   1   ROW     3   COL     8   RATE     250.000    
 BOUNDARY     39   LAYER   1   ROW     3   COL     9   RATE     250.000    
 BOUNDARY     40   LAYER   1   ROW     3   COL    10   RATE     250.000    
 BOUNDARY     41   LAYER   1   ROW     3   COL    11   RATE     250.000    
 BOUNDARY     42   LAYER   1   ROW     3   COL    12   RATE     250.000    
 BOUNDARY     43   LAYER   1   ROW     3   COL    13   RATE     250.000    
 BOUNDARY     44   LAYER   1   ROW     3   COL    14   RATE     250.000    
 BOUNDARY     45   LAYER   1   ROW     3   COL    15   RATE     250.000    
 BOUNDARY     46   LAYER   1   ROW     4   COL     1   RATE     250.000    
 BOUNDARY     47   LAYER   1   ROW     4   COL     2   RATE     250.000    
 BOUNDARY     48   LAYER   1   ROW     4   COL     3   RATE     250.000    
 BOUNDARY     49   LAYER   1   ROW     4   COL     4   RATE     250.000    
 BOUNDARY     50   LAYER   1   ROW     4   COL     5   RATE     250.000    
 BOUNDARY     51   LAYER   1   ROW     4   COL     6   RATE     250.000    
 BOUNDARY     52   LAYER   1   ROW     4   COL     7   RATE     250.000    
 BOUNDARY     53   LAYER   1   ROW     4   COL     8   RATE     250.000    
 BOUNDARY     54   LAYER   1   ROW     4   COL     9   RATE     250.000    
 BOUNDARY     55   LAYER   1   ROW     4   COL    10   RATE     250.000    
 BOUNDARY     56   LAYER   1   ROW     4   COL    11   RATE     250.000    
 BOUNDARY     57   LAYER   1   ROW     4   COL    12   RATE     250.000    
 BOUNDARY     58   LAYER   1   ROW     4   COL    13   RATE     250.000    
 BOUNDARY     59   LAYER   1   ROW     4   COL    14   RATE     250.000    
 BOUNDARY     60   LAYER   1   ROW     4   COL    15   RATE     250.000    
 BOUNDARY     61   LAYER   1   ROW     5   COL     1   RATE     250.000    
 BOUNDARY     62   LAYER   1   ROW     5   COL     2   RATE     250.000    
 BOUNDARY     63   LAYER   1   ROW     5   COL     3   RATE     250.000    
 BOUNDARY     64   LAYER   1   ROW     5   COL     4   RATE     250.000    
 BOUNDARY     65   LAYER   1   ROW     5   COL     5   RATE     250.000    
 BOUNDARY     66   LAYER   1   ROW     5   COL     6   RATE     250.000    
 BOUNDARY     67   LAYER   1   ROW     5   COL     7   RATE     250.000    
 BOUNDARY     68   LAYER   1   ROW     5   COL     8   RATE     250.000    
 BOUNDARY     69   LAYER   1   ROW     5   COL     9   RATE     250.000    
 BOUNDARY     70   LAYER   1   ROW     5   COL    10   RATE     250.000    
 BOUNDARY     71   LAYER   1   ROW     5   COL    11   RATE     250.000    
 BOUNDARY     72   LAYER   1   ROW     5   COL    12   RATE     250.000    
 BOUNDARY     73   LAYER   1   ROW     5   COL    13   RATE     250.000    
 BOUNDARY     74   LAYER   1   ROW     5   COL    14   RATE     250.000    
 BOUNDARY     75   LAYER   1   ROW     5   COL    15   RATE     250.000    
 BOUNDARY     76   LAYER   1   ROW     6   COL     1   RATE     250.000    
 BOUNDARY     77   LAYER   1   ROW     6   COL     2   RATE     250.000    
 BOUNDARY     78   LAYER   1   ROW     6   COL     3   RATE     250.000    
 BOUNDARY     79   LAYER   1   ROW     6   COL     4   RATE     250.000    
 BOUNDARY     80   LAYER   1   ROW     6   COL     5   RATE     250.000    
 BOUNDARY     81   LAYER   1   ROW     6   COL     6   RATE     250.000    
 BOUNDARY     82   LAYER   1   ROW     6   COL     7   RATE     250.000    
 BOUNDARY     83   LAYER   1   ROW     6   COL     8   RATE     250.000    
 BOUNDARY     84   LAYER   1   ROW     6   COL     9   RATE     250.000    
 BOUNDARY     85   LAYER   1   ROW     6   COL    10   RATE     250.000    
 BOUNDARY     86   LAYER   1   ROW     6   COL    11   RATE     250.000    
 BOUNDARY     87   LAYER   1   ROW     6   COL    12   RATE     250.000    
 BOUNDARY     88   LAYER   1   ROW     6   COL    13   RATE     250.000    
 BOUNDARY     89   LAYER   1   ROW     6   COL    14   RATE     250.000    
 BOUNDARY     90   LAYER   1   ROW     6   COL    15   RATE     250.000    
 BOUNDARY     91   LAYER   1   ROW     7   COL     1   RATE     250.000    
 BOUNDARY     92   LAYER   1   ROW     7   COL     2   RATE     250.000    
 BOUNDARY     93   LAYER   1   ROW     7   COL     3   RATE     250.000    
 BOUNDARY     94   LAYER   1   ROW     7   COL     4   RATE     250.000    
 BOUNDARY     95   LAYER   1   ROW     7   COL     5   RATE     250.000    
 BOUNDARY     96   LAYER   1   ROW     7   COL     6   RATE     250.000    
 BOUNDARY     97   LAYER   1   ROW     7   COL     7   RATE     250.000    
 BOUNDARY     98   LAYER   1   ROW     7   COL     8   RATE     250.000    
 BOUNDARY     99   LAYER   1   ROW     7   COL     9   RATE     250.000    
 BOUNDARY    100   LAYER   1   ROW     7   COL    10   RATE     250.000    
 BOUNDARY    101   LAYER   1   ROW     7   COL    11   RATE     250.000    
 BOUNDARY    102   LAYER   1   ROW     7   COL    12   RATE     250.000    
 BOUNDARY    103   LAYER   1   ROW     7   COL    13   RATE     250.000    
 BOUNDARY    104   LAYER   1   ROW     7   COL    14   RATE     250.000    
 BOUNDARY    105   LAYER   1   ROW     7   COL    15   RATE     250.000    
 BOUNDARY    106   LAYER   1   ROW     8   COL     1   RATE     250.000    
 BOUNDARY    107   LAYER   1   ROW     8   COL     2   RATE     250.000    
 BOUNDARY    108   LAYER   1   ROW     8   COL     3   RATE     250.000    
 BOUNDARY    109   LAYER   1   ROW     8   COL     4   RATE     250.000    
 BOUNDARY    110   LAYER   1   ROW     8   COL     5   RATE     250.000    
 BOUNDARY    111   LAYER   1   ROW     8   COL     6   RATE     250.000    
 BOUNDARY    112   LAYER   1   ROW     8   COL     7   RATE     250.000    
 BOUNDARY    113   LAYER   1   ROW     8   COL     8   RATE     250.000    
 BOUNDARY    114   LAYER   1   ROW     8   COL     9   RATE     250.000    
 BOUNDARY    115   LAYER   1   ROW     8   COL    10   RATE     250.000    
 BOUNDARY    116   LAYER   1   ROW     8   COL    11   RATE     250.000    
 BOUNDARY    117   LAYER   1   ROW     8   COL    12   RATE     250.000    
 BOUNDARY    118   LAYER   1   ROW     8   COL    13   RATE     250.000    
 BOUNDARY    119   LAYER   1   ROW     8   COL    14   RATE     250.000    
 BOUNDARY    120   LAYER   1   ROW     8   COL    15   RATE     250.000    
 BOUNDARY    121   LAYER   1   ROW     9   COL     1   RATE     250.000    
 BOUNDARY    122   LAYER   1   ROW     9   COL     2   RATE     250.000    
 BOUNDARY    123   LAYER   1   ROW     9   COL     3   RATE     250.000    
 BOUNDARY    124   LAYER   1   ROW     9   COL     4   RATE     250.000    
 BOUNDARY    125   LAYER   1   ROW     9   COL     5   RATE     250.000    
 BOUNDARY    126   LAYER   1   ROW     9   COL     6   RATE     250.000    
 BOUNDARY    127   LAYER   1   ROW     9   COL     7   RATE     250.000    
 BOUNDARY    128   LAYER   1   ROW     9   COL     8   RATE     250.000    
 BOUNDARY    129   LAYER   1   ROW     9   COL     9   RATE     250.000    
 BOUNDARY    130   LAYER   1   ROW     9   COL    10   RATE     250.000    
 BOUNDARY    131   LAYER   1   ROW     9   COL    11   RATE     250.000    
 BOUNDARY    132   LAYER   1   ROW     9   COL    12   RATE     250.000    
 BOUNDARY    133   LAYER   1   ROW     9   COL    13   RATE     250.000    
 BOUNDARY    134   LAYER   1   ROW     9   COL    14   RATE     250.000    
 BOUNDARY    135   LAYER   1   ROW     9   COL    15   RATE     250.000    
 BOUNDARY    136   LAYER   1   ROW    10   COL     1   RATE     250.000    
 BOUNDARY    137   LAYER   1   ROW    10   COL     2   RATE     250.000    
 BOUNDARY    138   LAYER   1   ROW    10   COL     3   RATE     250.000    
 BOUNDARY    139   LAYER   1   ROW    10   COL     4   RATE     250.000    
 BOUNDARY    140   LAYER   1   ROW    10   COL     5   RATE     250.000    
 BOUNDARY    141   LAYER   1   ROW    10   COL     6   RATE     250.000    
 BOUNDARY    142   LAYER   1   ROW    10   COL     7   RATE     250.000    
 BOUNDARY    143   LAYER   1   ROW    10   COL     8   RATE     250.000    
 BOUNDARY    144   LAYER   1   ROW    10   COL     9   RATE     250.000    
 BOUNDARY    145   LAYER   1   ROW    10   COL    10   RATE     250.000    
 BOUNDARY    146   LAYER   1   ROW    10   COL    11   RATE     250.000    
 BOUNDARY    147   LAYER   1   ROW    10   COL    12   RATE     250.000    
 BOUNDARY    148   LAYER   1   ROW    10   COL    13   RATE     250.000    
 BOUNDARY    149   LAYER   1   ROW    10   COL    14   RATE     250.000    
 BOUNDARY    150   LAYER   1   ROW    10   COL    15   RATE     250.000    
 UBDSV4 SAVING ET SEGS          ON UNIT   1016 AT TIME STEP     31, STRESS PERIOD      8

 ET SEGS            PERIOD  8   STEP 31
 BOUNDARY      1   LAYER   1   ROW     1   COL     1   RATE    -5.65013    
 BOUNDARY      2   LAYER   1   ROW     1   COL     2   RATE    -19.1046    
 BOUNDARY      3   LAYER   1   ROW     1   COL     3   RATE   -100.0000    
 BOUNDARY      4   LAYER   1   ROW     1   COL     4   RATE   -100.0000    
 BOUNDARY      5   LAYER   1   ROW     1   COL     5   RATE   -100.0000    
 BOUNDARY      6   LAYER   1   ROW     1   COL     6   RATE   -100.0000    
 BOUNDARY      7   LAYER   1   ROW     1   COL     7   RATE   -100.0000    
 BOUNDARY      8   LAYER   1   ROW     1   COL     8   RATE   -100.0000    
 BOUNDARY      9   LAYER   1   ROW     1   COL     9   RATE   -100.0000    
 BOUNDARY     10   LAYER   1   ROW     1   COL    10   RATE   -100.0000    
 BOUNDARY     11   LAYER   1   ROW     1   COL    11   RATE   -100.0000    
 BOUNDARY     12   LAYER   1   ROW     1   COL    12   RATE    -29.9374    
 BOUNDARY     13   LAYER   1   ROW     1   COL    13   RATE    -2.47946    
 BOUNDARY     14   LAYER   1   ROW     1   COL    14   RATE     0.00000    
 BOUNDARY     15   LAYER   1   ROW     1   COL    15   RATE     0.00000    
 BOUNDARY     16   LAYER   1   ROW     2   COL     1   RATE     0.00000    
 BOUNDARY     17   LAYER   1   ROW     2   COL     2   RATE    -7.96523    
 BOUNDARY     18   LAYER   1   ROW     2   COL     3   RATE    -88.2329    
 BOUNDARY     19   LAYER   1   ROW     2   COL     4   RATE   -100.0000    
 BOUNDARY     20   LAYER   1   ROW     2   COL     5   RATE   -100.0000    
 BOUNDARY     21   LAYER   1   ROW     2   COL     6   RATE   -100.0000    
 BOUNDARY     22   LAYER   1   ROW     2   COL     7   RATE   -100.0000    
 BOUNDARY     23   LAYER   1   ROW     2   COL     8   RATE   -100.0000    
 BOUNDARY     24   LAYER   1   ROW     2   COL     9   RATE   -100.0000    
 BOUNDARY     25   LAYER   1   ROW     2   COL    10   RATE   -100.0000    
 BOUNDARY     26   LAYER   1   ROW     2   COL    11   RATE   -100.0000    
 BOUNDARY     27   LAYER   1   ROW     2   COL    12   RATE    -38.3386    
 BOUNDARY     28   LAYER   1   ROW     2   COL    13   RATE    -3.43962    
 BOUNDARY     29   LAYER   1   ROW     2   COL    14   RATE     0.00000    
 BOUNDARY     30   LAYER   1   ROW     2   COL    15   RATE     0.00000    
 BOUNDARY     31   LAYER   1   ROW     3   COL     1   RATE     0.00000    
 BOUNDARY     32   LAYER   1   ROW     3   COL     2   RATE   -0.724177    
 BOUNDARY     33   LAYER   1   ROW     3   COL     3   RATE    -55.6551    
 BOUNDARY     34   LAYER   1   ROW     3   COL     4   RATE   -100.0000    
 BOUNDARY     35   LAYER   1   ROW     3   COL     5   RATE   -100.0000    
 BOUNDARY     36   LAYER   1   ROW     3   COL     6   RATE   -100.0000    
 BOUNDARY     37   LAYER   1   ROW     3   COL     7   RATE   -100.0000    
 BOUNDARY     38   LAYER   1   ROW     3   COL     8   RATE   -100.0000    
 BOUNDARY     39   LAYER   1   ROW     3   COL     9   RATE   -100.0000    
 BOUNDARY     40   LAYER   1   ROW     3   COL    10   RATE   -100.0000    
 BOUNDARY     41   LAYER   1   ROW     3   COL    11   RATE   -100.0000    
 BOUNDARY     42   LAYER   1   ROW     3   COL    12   RATE    -52.9631    
 BOUNDARY     43   LAYER   1   ROW     3   COL    13   RATE    -5.18695    
 BOUNDARY     44   LAYER   1   ROW     3   COL    14   RATE     0.00000    
 BOUNDARY     45   LAYER   1   ROW     3   COL    15   RATE     0.00000    
 BOUNDARY     46   LAYER   1   ROW     4   COL     1   RATE     0.00000    
 BOUNDARY     47   LAYER   1   ROW     4   COL     2   RATE    -6.36231    
 BOUNDARY     48   LAYER   1   ROW     4   COL     3   RATE    -76.8911    
 BOUNDARY     49   LAYER   1   ROW     4   COL     4   RATE   -100.0000    
 BOUNDARY     50   LAYER   1   ROW     4   COL     5   RATE   -100.0000    
 BOUNDARY     51   LAYER   1   ROW     4   COL     6   RATE   -100.0000    
 BOUNDARY     52   LAYER   1   ROW     4   COL     7   RATE   -100.0000    
 BOUNDARY     53   LAYER   1   ROW     4   COL     8   RATE   -100.0000    
 BOUNDARY     54   LAYER   1   ROW     4   COL     9   RATE   -100.0000    
 BOUNDARY     55   LAYER   1   ROW     4   COL    10   RATE   -100.0000    
 BOUNDARY     56   LAYER   1   ROW     4   COL    11   RATE   -100.0000    
 BOUNDARY     57   LAYER   1   ROW     4   COL    12   RATE    -66.8593    
 BOUNDARY     58   LAYER   1   ROW     4   COL    13   RATE    -6.59343    
 BOUNDARY     59   LAYER   1   ROW     4   COL    14   RATE     0.00000    
 BOUNDARY     60   LAYER   1   ROW     4   COL    15   RATE     0.00000    
 BOUNDARY     61   LAYER   1   ROW     5   COL     1   RATE     0.00000    
 BOUNDARY     62   LAYER   1   ROW     5   COL     2   RATE    -9.47503    
 BOUNDARY     63   LAYER   1   ROW     5   COL     3   RATE    -98.7428    
 BOUNDARY     64   LAYER   1   ROW     5   COL     4   RATE   -100.0000    
 BOUNDARY     65   LAYER   1   ROW     5   COL     5   RATE   -100.0000    
 BOUNDARY     66   LAYER   1   ROW     5   COL     6   RATE   -100.0000    
 BOUNDARY     67   LAYER   1   ROW     5   COL     7   RATE   -100.0000    
 BOUNDARY     68   LAYER   1   ROW     5   COL     8   RATE   -100.0000    
 BOUNDARY     69   LAYER   1   ROW     5   COL     9   RATE   -100.0000    
 BOUNDARY     70   LAYER   1   ROW     5   COL    10   RATE   -100.0000    
 BOUNDARY     71   LAYER   1   ROW     5   COL    11   RATE   -100.0000    
 BOUNDARY     72   LAYER   1   ROW     5   COL    12   RATE    -76.5456    
 BOUNDARY     73   LAYER   1   ROW     5   COL    13   RATE    -7.44688    
 BOUNDARY     74   LAYER   1   ROW     5   COL    14   RATE     0.00000    
 BOUNDARY     75   LAYER   1   ROW     5   COL    15   RATE     0.00000    
 BOUNDARY     76   LAYER   1   ROW     6   COL     1   RATE     0.00000    
 BOUNDARY     77   LAYER   1   ROW     6   COL     2   RATE    -7.90594    
 BOUNDARY     78   LAYER   1   ROW     6   COL     3   RATE   -100.0000    
 BOUNDARY     79   LAYER   1   ROW     6   COL     4   RATE   -100.0000    
 BOUNDARY     80   LAYER   1   ROW     6   COL     5   RATE   -100.0000    
 BOUNDARY     81   LAYER   1   ROW     6   COL     6   RATE   -100.0000    
 BOUNDARY     82   LAYER   1   ROW     6   COL     7   RATE   -100.0000    
 BOUNDARY     83   LAYER   1   ROW     6   COL     8   RATE   -100.0000    
 BOUNDARY     84   LAYER   1   ROW     6   COL     9   RATE   -100.0000    
 BOUNDARY     85   LAYER   1   ROW     6   COL    10   RATE   -100.0000    
 BOUNDARY     86   LAYER   1   ROW     6   COL    11   RATE   -100.0000    
 BOUNDARY     87   LAYER   1   ROW     6   COL    12   RATE    -80.1726    
 BOUNDARY     88   LAYER   1   ROW     6   COL    13   RATE    -7.40605    
 BOUNDARY     89   LAYER   1   ROW     6   COL    14   RATE     0.00000    
 BOUNDARY     90   LAYER   1   ROW     6   COL    15   RATE     0.00000    
 BOUNDARY     91   LAYER   1   ROW     7   COL     1   RATE     0.00000    
 BOUNDARY     92   LAYER   1   ROW     7   COL     2   RATE    -4.16227    
 BOUNDARY     93   LAYER   1   ROW     7   COL     3   RATE   -100.0000    
 BOUNDARY     94   LAYER   1   ROW     7   COL     4   RATE   -100.0000    
 BOUNDARY     95   LAYER   1   ROW     7   COL     5   RATE   -100.0000    
 BOUNDARY     96   LAYER   1   ROW     7   COL     6   RATE   -100.0000    
 BOUNDARY     97   LAYER   1   ROW     7   COL     7   RATE   -100.0000    
 BOUNDARY     98   LAYER   1   ROW     7   COL     8   RATE   -100.0000    
 BOUNDARY     99   LAYER   1   ROW     7   COL     9   RATE   -100.0000    
 BOUNDARY    100   LAYER   1   ROW     7   COL    10   RATE   -100.0000    
 BOUNDARY    101   LAYER   1   ROW     7   COL    11   RATE   -100.0000    
 BOUNDARY    102   LAYER   1   ROW     7   COL    12   RATE    -80.1847    
 BOUNDARY    103   LAYER   1   ROW     7   COL    13   RATE    -6.73715    
 BOUNDARY    104   LAYER   1   ROW     7   COL    14   RATE     0.00000    
 BOUNDARY    105   LAYER   1   ROW     7   COL    15   RATE     0.00000    
 BOUNDARY    106   LAYER   1   ROW     8   COL     1   RATE    -1.31976    
 BOUNDARY    107   LAYER   1   ROW     8   COL     2   RATE    -23.4301    
 BOUNDARY    108   LAYER   1   ROW     8   COL     3   RATE   -100.0000    
 BOUNDARY    109   LAYER   1   ROW     8   COL     4   RATE   -100.0000    
 BOUNDARY    110   LAYER   1   ROW     8   COL     5   RATE   -100.0000    
 BOUNDARY    111   LAYER   1   ROW     8   COL     6   RATE   -100.0000    
 BOUNDARY    112   LAYER   1   ROW     8   COL     7   RATE   -100.0000    
 BOUNDARY    113   LAYER   1   ROW     8   COL     8   RATE   -100.0000    
 BOUNDARY    114   LAYER   1   ROW     8   COL     9   RATE   -100.0000    
 BOUNDARY    115   LAYER   1   ROW     8   COL    10   RATE   -100.0000    
 BOUNDARY    116   LAYER   1   ROW     8   COL    11   RATE   -100.0000    
 BOUNDARY    117   LAYER   1   ROW     8   COL    12   RATE    -83.2240    
 BOUNDARY    118   LAYER   1   ROW     8   COL    13   RATE    -6.81930    
 BOUNDARY    119   LAYER   1   ROW     8   COL    14   RATE     0.00000    
 BOUNDARY    120   LAYER   1   ROW     8   COL    15   RATE     0.00000    
 BOUNDARY    121   LAYER   1   ROW     9   COL     1   RATE    -36.0878    
 BOUNDARY    122   LAYER   1   ROW     9   COL     2   RATE   -100.0000    
 BOUNDARY    123   LAYER   1   ROW     9   COL     3   RATE   -100.0000    
 BOUNDARY    124   LAYER   1   ROW     9   COL     4   RATE   -100.0000    
 BOUNDARY    125   LAYER   1   ROW     9   COL     5   RATE   -100.0000    
 BOUNDARY    126   LAYER   1   ROW     9   COL     6   RATE   -100.0000    
 BOUNDARY    127   LAYER   1   ROW     9   COL     7   RATE   -100.0000    
 BOUNDARY    128   LAYER   1   ROW     9   COL     8   RATE   -100.0000    
 BOUNDARY    129   LAYER   1   ROW     9   COL     9   RATE   -100.0000    
 BOUNDARY    130   LAYER   1   ROW     9   COL    10   RATE   -100.0000    
 BOUNDARY    131   LAYER   1   ROW     9   COL    11   RATE   -100.0000    
 BOUNDARY    132   LAYER   1   ROW     9   COL    12   RATE    -89.8226    
 BOUNDARY    133   LAYER   1   ROW     9   COL    13   RATE    -7.71192    
 BOUNDARY    134   LAYER   1   ROW     9   COL    14   RATE     0.00000    
 BOUNDARY    135   LAYER   1   ROW     9   COL    15   RATE     0.00000    
 BOUNDARY    136   LAYER   1   ROW    10   COL     1   RATE   -100.0000    
 BOUNDARY    137   LAYER   1   ROW    10   COL     2   RATE   -100.0000    
 BOUNDARY    138   LAYER   1   ROW    10   COL     3   RATE   -100.0000    
 BOUNDARY    139   LAYER   1   ROW    10   COL     4   RATE   -100.0000    
 BOUNDARY    140   LAYER   1   ROW    10   COL     5   RATE   -100.0000    
 BOUNDARY    141   LAYER   1   ROW    10   COL     6   RATE   -100.0000    
 BOUNDARY    142   LAYER   1   ROW    10   COL     7   RATE   -100.0000    
 BOUNDARY    143   LAYER   1   ROW    10   COL     8   RATE   -100.0000    
 BOUNDARY    144   LAYER   1   ROW    10   COL     9   RATE   -100.0000    
 BOUNDARY    145   LAYER   1   ROW    10   COL    10   RATE   -100.0000    
 BOUNDARY    146   LAYER   1   ROW    10   COL    11   RATE   -100.0000    
 BOUNDARY    147   LAYER   1   ROW    10   COL    12   RATE    -94.4817    
 BOUNDARY    148   LAYER   1   ROW    10   COL    13   RATE    -8.28094    
 BOUNDARY    149   LAYER   1   ROW    10   COL    14   RATE     0.00000    
 BOUNDARY    150   LAYER   1   ROW    10   COL    15   RATE     0.00000    
1
  HEAD             IN LAYER   1 AT END OF TIME STEP  31 IN STRESS PERIOD    8
  ---------------------------------------------------------------------------

           1       2       3       4       5       6       7       8       9      10      11      12      13      14      15
 ...........................................................................................................................
   1   132.83  136.37  140.52  144.18  146.95  148.75  149.57  149.42  148.28  146.09  142.73  137.99  131.24  121.37  105.84
   2   127.24  133.98  139.66  143.90  146.88  148.75  149.59  149.46  148.35  146.18  142.88  138.24  131.72  122.26  106.95
   3   110.16  130.36  138.73  143.66  146.86  148.80  149.65  149.54  148.47  146.35  143.12  138.66  132.59  124.37  113.73
   4   125.89  133.18  139.34  143.87  147.02  148.93  149.72  149.63  148.62  146.55  143.39  139.05  133.30  125.60  115.18
   5   129.84  134.74  139.96  144.23  147.28  149.10  149.81  149.72  148.78  146.75  143.62  139.33  133.72  126.42  117.42
   6   126.59  133.95  140.08  144.56  147.59  149.30  149.89  149.80  148.93  146.93  143.77  139.43  133.70  126.10  116.77
   7   111.75  132.08  140.31  145.06  147.98  149.50  149.95  149.86  149.06  147.08  143.89  139.43  133.37  124.56  110.12
   8   130.66  137.01  142.25  146.04  148.50  149.70  150.00  149.91  149.17  147.21  144.01  139.52  133.41  124.52  109.97
   9   138.17  140.89  144.17  147.02  148.99  149.86  150.04  149.94  149.24  147.31  144.13  139.71  133.86  125.94  115.72
  10   141.10  142.81  145.25  147.60  149.26  149.94  150.07  149.95  149.27  147.37  144.21  139.84  134.14  126.56  116.61
1
  HEAD             IN LAYER   2 AT END OF TIME STEP  31 IN STRESS PERIOD    8
  ---------------------------------------------------------------------------

           1       2       3       4       5       6       7       8       9      10      11      12      13      14      15
 ...........................................................................................................................
   1   133.83  136.19  139.47  142.65  145.22  146.95  147.73  147.55  146.36  144.11  140.76  136.26  130.64  124.29  118.75
   2   131.95  135.14  139.00  142.48  145.18  146.95  147.76  147.59  146.42  144.20  140.90  136.49  131.03  124.93  119.63
   3   129.22  133.96  138.56  142.35  145.17  147.00  147.82  147.67  146.53  144.36  141.14  136.87  131.69  126.08  121.53
   4   131.25  134.68  138.82  142.50  145.30  147.11  147.92  147.78  146.67  144.55  141.40  137.26  132.29  127.00  122.76
   5   132.51  135.42  139.26  142.80  145.53  147.28  148.06  147.90  146.82  144.72  141.61  137.53  132.67  127.54  123.53
   6   132.15  135.55  139.61  143.17  145.83  147.50  148.20  148.03  146.96  144.88  141.77  137.67  132.75  127.50  123.32
   7   131.15  135.79  140.18  143.70  146.23  147.75  148.36  148.15  147.08  145.01  141.88  137.73  132.66  127.05  122.17
   8   135.20  138.10  141.52  144.51  146.72  148.03  148.51  148.26  147.19  145.12  141.99  137.83  132.73  127.08  122.16
   9   138.58  140.39  142.90  145.32  147.17  148.27  148.64  148.34  147.26  145.20  142.10  137.98  133.00  127.64  123.29
  10   140.34  141.68  143.73  145.81  147.44  148.40  148.71  148.39  147.31  145.25  142.16  138.08  133.19  128.00  123.85

 HEAD WILL BE SAVED ON UNIT 1017 AT END OF TIME STEP   31, STRESS PERIOD    8
1
  VOLUME BUDGET FOR ENTIRE MODEL AT END OF TIME STEP   31, STRESS PERIOD   8
  ------------------------------------------------------------------------------

     CUMULATIVE VOLUME      L**3       RATES FOR THIS TIME STEP      L**3/T
     ------------------                 ------------------------

           IN:                                      IN:
           ---                                      ---
             STORAGE =     1883332.6952               STORAGE =       42098.1816
    WELLS NEAR RIVER =           0.0000      WELLS NEAR RIVER =           0.0000
               RIVER =           0.0000                 RIVER =           0.0000
           GHB LAKES =           0.0000             GHB LAKES =           0.0000
            RECHARGE =    36874739.5833              RECHARGE =       37500.0000
             ET SEGS =           0.0000               ET SEGS =           0.0000

            TOTAL IN =    38758072.2785              TOTAL IN =       79598.1816

          OUT:                                     OUT:
          ----                                     ----
             STORAGE =     9064636.0387               STORAGE =           0.0000
    WELLS NEAR RIVER =        5570.0000      WELLS NEAR RIVER =           0.0000
               RIVER =    14736839.7150                 RIVER =       38315.3837
           GHB LAKES =    11378074.6529             GHB LAKES =       31186.4575
            RECHARGE =           0.0000              RECHARGE =           0.0000
             ET SEGS =     3572951.8911               ET SEGS =       10096.3404

           TOTAL OUT =    38758072.2978             TOTAL OUT =       79598.1816

            IN - OUT =      -1.9225E-02              IN - OUT =       1.3515E-05

 PERCENT DISCREPANCY =          -0.00     PERCENT DISCREPANCY =           0.00






         TIME SUMMARY AT END OF TIME STEP   31 IN STRESS PERIOD    8
                    SECONDS     MINUTES      HOURS       DAYS        YEARS
                    -----------------------------------------------------------
   TIME STEP LENGTH  86400.      1440.0      24.000     1.00000     2.73785E-03
 STRESS PERIOD TIME 2.67840E+06  44640.      744.00      31.000     8.48734E-02
         TOTAL TIME 3.16224E+07 5.27040E+05  8784.0      366.00      1.0021    
