                                  MODFLOW-2015
             U.S. GEOLOGICAL SURVEY MODULAR FINITE-DIFFERENCE MODEL
                          GROUNDWATER FLOW MODEL (GWF)
                             VERSION GWF 01/31/2015

 OPENED test4_ets_list.ic
 FILE TYPE:IC8                    UNIT 1005   STATUS:OLD                 
 FORMAT:FORMATTED              ACCESS:SEQUENTIAL          
 ACTION:READ                


 OPENED test4_ets_list.npf
 FILE TYPE:NPF8                   UNIT 1006   STATUS:OLD                 
 FORMAT:FORMATTED              ACCESS:SEQUENTIAL          
 ACTION:READ                


 OPENED test4_ets_list.wel
 FILE TYPE:WEL8                   UNIT 1007   STATUS:OLD                 
 FORMAT:FORMATTED              ACCESS:SEQUENTIAL          
 ACTION:READ                


 OPENED test4_ets_list.riv
 FILE TYPE:RIV8                   UNIT 1008   STATUS:OLD                 
 FORMAT:FORMATTED              ACCESS:SEQUENTIAL          
 ACTION:READ                


 OPENED test4_ets_list.rch
 FILE TYPE:RCH8                   UNIT 1009   STATUS:OLD                 
 FORMAT:FORMATTED              ACCESS:SEQUENTIAL          
 ACTION:READ                


 OPENED test4_ets_list.oc
 FILE TYPE:OC8                    UNIT 1010   STATUS:OLD                 
 FORMAT:FORMATTED              ACCESS:SEQUENTIAL          
 ACTION:READ                


 OPENED test4_ets_list.dis
 FILE TYPE:DIS8                   UNIT 1011   STATUS:OLD                 
 FORMAT:FORMATTED              ACCESS:SEQUENTIAL          
 ACTION:READ                


 OPENED test4_ets_list.ghb
 FILE TYPE:GHB8                   UNIT 1012   STATUS:OLD                 
 FORMAT:FORMATTED              ACCESS:SEQUENTIAL          
 ACTION:READ                


 OPENED test4_ets_list.sto
 FILE TYPE:STO8                   UNIT 1013   STATUS:OLD                 
 FORMAT:FORMATTED              ACCESS:SEQUENTIAL          
 ACTION:READ                


 OPENED test4_ets_list.evt
 FILE TYPE:EVT8                   UNIT 1014   STATUS:OLD                 
 FORMAT:FORMATTED              ACCESS:SEQUENTIAL          
 ACTION:READ                


 OPENED test4_ets_list.obs
 FILE TYPE:OBS8                   UNIT 1015   STATUS:OLD                 
 FORMAT:FORMATTED              ACCESS:SEQUENTIAL          
 ACTION:READ                


 OPENED test4_ets_list.chd
 FILE TYPE:CHD8                   UNIT 1016   STATUS:OLD                 
 FORMAT:FORMATTED              ACCESS:SEQUENTIAL          
 ACTION:READ                


 OPENED test4_ets_list.cbc
 FILE TYPE:DATA(BINARY)           UNIT 1017   STATUS:REPLACE             
 FORMAT:UNFORMATTED            ACCESS:STREAM              
 ACTION:READWRITE           


 OPENED test4_ets_list.hds
 FILE TYPE:DATA                   UNIT 1018   STATUS:REPLACE             
 FORMAT:FORMATTED              ACCESS:SEQUENTIAL          
 ACTION:READWRITE           


 OPENED ibound.out
 FILE TYPE:DATA                   UNIT 1019   STATUS:REPLACE             
 FORMAT:FORMATTED              ACCESS:SEQUENTIAL          
 ACTION:READWRITE           


 OPENED head_obs.csv
 FILE TYPE:DATA                   UNIT 1020   STATUS:REPLACE             
 FORMAT:FORMATTED              ACCESS:SEQUENTIAL          
 ACTION:READWRITE           


 OPENED riv_obs.csv
 FILE TYPE:DATA                   UNIT 1021   STATUS:REPLACE             
 FORMAT:FORMATTED              ACCESS:SEQUENTIAL          
 ACTION:READWRITE           


 OPENED ghb_obs.csv
 FILE TYPE:DATA                   UNIT 1022   STATUS:REPLACE             
 FORMAT:FORMATTED              ACCESS:SEQUENTIAL          
 ACTION:READWRITE           


 OPENED ghb_flows.csv
 FILE TYPE:DATA                   UNIT 1023   STATUS:REPLACE             
 FORMAT:FORMATTED              ACCESS:SEQUENTIAL          
 ACTION:READWRITE           


 OPENED head_hydrographs.csv
 FILE TYPE:DATA                   UNIT 1024   STATUS:REPLACE             
 FORMAT:FORMATTED              ACCESS:SEQUENTIAL          
 ACTION:READWRITE           


 OPENED riv_flows.csv
 FILE TYPE:DATA                   UNIT 1025   STATUS:REPLACE             
 FORMAT:FORMATTED              ACCESS:SEQUENTIAL          
 ACTION:READWRITE           


 OPENED intercell_flow_obs1.csv
 FILE TYPE:DATA                   UNIT 1026   STATUS:REPLACE             
 FORMAT:FORMATTED              ACCESS:SEQUENTIAL          
 ACTION:READWRITE           


 OPENED intercell_flow_obs2.csv
 FILE TYPE:DATA                   UNIT 1027   STATUS:REPLACE             
 FORMAT:FORMATTED              ACCESS:SEQUENTIAL          
 ACTION:READWRITE           


 OPENED intercell_flows.csv
 FILE TYPE:DATA                   UNIT 1028   STATUS:REPLACE             
 FORMAT:FORMATTED              ACCESS:SEQUENTIAL          
 ACTION:READWRITE           


 OPENED chd_flows.csv
 FILE TYPE:DATA                   UNIT 1029   STATUS:REPLACE             
 FORMAT:FORMATTED              ACCESS:SEQUENTIAL          
 ACTION:READWRITE           


 OPENED chd_obs.csv
 FILE TYPE:DATA                   UNIT 1030   STATUS:REPLACE             
 FORMAT:FORMATTED              ACCESS:SEQUENTIAL          
 ACTION:READWRITE           


 DIS -- STRUCTURED GRID DISCRETIZATION PACKAGE, VERSION 2 : 3/27/2014 - INPUT READ FROM UNIT 1011


 PROCESSING DISCRETIZATION OPTIONS
    MODEL LENGTH UNIT IS FEET
 END OF DISCRETIZATION OPTIONS
 PROCESSING DISCRETIZATION DIMENSIONS
    NLAY =       2
    NROW =      10
    NCOL =      15
 END OF DISCRETIZATION DIMENSIONS
 PROCESSING DISDATA

                     DELR =   500.000    

                     DELC =   500.000    

 TOP ELEVATION OF LAYER 1 =   150.000    

   MODEL LAYER BOTTOM EL. =   50.0000     FOR LAYER   1

   MODEL LAYER BOTTOM EL. =  -50.0000     FOR LAYER   2
 END PROCESSING DISDATA

 WEL   -- WELLS PACKAGE, VERSION 8, 2/22/2014 INPUT READ FROM UNIT 1007
 #option block.  Note -- no comments allowed on aux line

 PROCESSING WELLS OPTIONS
    AUXILIARY WELLS VARIABLE: VAR1            
    AUXILIARY WELLS VARIABLE: VAR2            
    AUXILIARY WELLS VARIABLE: VAR3            
    WELLS NEAR RIVER PACKAGE NAME: WELLS NEAR RIVER
    LISTS OF WELLS NEAR RIVER CELLS WILL BE PRINTED.
    WELLS NEAR RIVER FLOWS WILL BE PRINTED TO LISTING FILE.
    FLOWS WILL BE SAVED TO BUDGET FILE SPECIFIED IN OUTPUT CONTROL
    WELLS NEAR RIVER BOUNDARIES HAVE NAMES IN LAST COLUMN.
    TIME-SERIES DATA WILL BE READ FROM FILE: well-1_rate.ts

 OPENED well-1_rate.ts
 FILE TYPE:TS   UNIT 1031   STATUS:OLD                 
 FORMAT:FORMATTED              ACCESS:SEQUENTIAL          
 ACTION:READ                

    TIME-SERIES DATA WILL BE READ FROM FILE: well-2_rate.ts

 OPENED well-2_rate.ts
 FILE TYPE:TS   UNIT 1032   STATUS:OLD                 
 FORMAT:FORMATTED              ACCESS:SEQUENTIAL          
 ACTION:READ                

 END OF WELLS NEAR RIVER OPTIONS

 PROCESSING WELLS NEAR RIVER DIMENSIONS
    MAXBOUND =       5
 END OF WELLS NEAR RIVER DIMENSIONS

 RIV   -- RIVER LEAKAGE PACKAGE, VERSION 8, 2/22/2014 INPUT READ FROM UNIT 1008

 PROCESSING RIVER LEAKAGE OPTIONS
    RIVER PACKAGE NAME: RIVER           
    LISTS OF RIVER CELLS WILL BE PRINTED.
    RIVER FLOWS WILL BE PRINTED TO LISTING FILE.
    FLOWS WILL BE SAVED TO BUDGET FILE SPECIFIED IN OUTPUT CONTROL
    RIVER BOUNDARIES HAVE NAMES IN LAST COLUMN.
    TIME-SERIES DATA WILL BE READ FROM FILE: riv_stage.ts

 OPENED riv_stage.ts
 FILE TYPE:TS   UNIT 1033   STATUS:OLD                 
 FORMAT:FORMATTED              ACCESS:SEQUENTIAL          
 ACTION:READ                

 END OF RIVER OPTIONS

 PROCESSING RIVER DIMENSIONS
    MAXBOUND =      20
 #  autodetect
 END OF RIVER DIMENSIONS

 GHB   -- HEAD DEP BOUNDS PACKAGE, VERSION 8, 2/22/2014 INPUT READ FROM UNIT 1012
 # Options block

 PROCESSING HEAD DEP BOUNDS OPTIONS
    GHB LAKES PACKAGE NAME: GHB LAKES       
    LISTS OF GHB LAKES CELLS WILL BE PRINTED.
    GHB LAKES FLOWS WILL BE PRINTED TO LISTING FILE.
    GHB LAKES BOUNDARIES HAVE NAMES IN LAST COLUMN.
 END OF GHB LAKES OPTIONS
 # Dimensions block

 PROCESSING GHB LAKES DIMENSIONS
    MAXBOUND =       3
 END OF GHB LAKES DIMENSIONS

 RCH   -- RECHARGE PACKAGE, VERSION 8, 2/22/2014 INPUT READ FROM UNIT 1009

 PROCESSING RECHARGE OPTIONS
    AUXILIARY RECHARGE VARIABLE: VAR1            
    AUXILIARY RECHARGE VARIABLE: VAR2            
    RECHARGE WILL BE APPLIED TO HIGHEST ACTIVE CELL.
    LISTS OF RECHARGE CELLS WILL BE PRINTED.
    RECHARGE FLOWS WILL BE PRINTED TO LISTING FILE.
    FLOWS WILL BE SAVED TO BUDGET FILE SPECIFIED IN OUTPUT CONTROL
    RECHARGE PACKAGE NAME: RECHARGE        
 END OF RECHARGE OPTIONS
 #dimension block is required

 PROCESSING RECHARGE DIMENSIONS
    MAXBOUND =     150
 END OF RECHARGE DIMENSIONS

 EVT   -- EVT PACKAGE, VERSION 8, 2/22/2014 INPUT READ FROM UNIT 1014
 # ETS input file

 PROCESSING EVT OPTIONS
    LISTS OF EVT CELLS WILL BE PRINTED.
    EVT FLOWS WILL BE PRINTED TO LISTING FILE.
    FLOWS WILL BE SAVED TO BUDGET FILE SPECIFIED IN OUTPUT CONTROL
    ET SEGS PACKAGE NAME: ET SEGS         
    EVT INPUT WILL BE READ AS LIST(S).
    EVT MAX. RATE MULTIPLIER WILL BE READ.
    ET SEGS BOUNDARIES HAVE NAMES IN LAST COLUMN.
    TIME-SERIES DATA WILL BE READ FROM FILE: max_et_rate.ts

 OPENED max_et_rate.ts
 FILE TYPE:TS   UNIT 1034   STATUS:OLD                 
 FORMAT:FORMATTED              ACCESS:SEQUENTIAL          
 ACTION:READ                

    EVAPOTRANSPIRATION WILL BE APPLIED TO HIGHEST ACTIVE CELL.
 END OF ET SEGS OPTIONS

 PROCESSING ET SEGS DIMENSIONS
    MAXBOUND =      20
 #  autodetect
 END OF ET SEGS DIMENSIONS

 CHD   -- CONSTANT HEAD PACKAGE, VERSION 8, 2/22/2014 INPUT READ FROM UNIT 1016

 PROCESSING CONSTANT HEAD OPTIONS
    CONSTANT HEADS PACKAGE NAME: CONSTANT HEADS  
    CONSTANT HEADS BOUNDARIES HAVE NAMES IN LAST COLUMN.
    LISTS OF CONSTANT HEADS CELLS WILL BE PRINTED.
    CONSTANT HEADS FLOWS WILL BE PRINTED TO LISTING FILE.
    FLOWS WILL BE SAVED TO BUDGET FILE SPECIFIED IN OUTPUT CONTROL
 END OF CONSTANT HEADS OPTIONS

 PROCESSING CONSTANT HEADS DIMENSIONS
    MAXBOUND =      10
 END OF CONSTANT HEADS DIMENSIONS

 IC -- INITIAL CONDITIONS PACKAGE, VERSION 8, 3/28/2015 INPUT READ FROM UNIT 1005
 #Valley aquifer with 2 sand layers separated by silt.  Stress period 1 is natur
 # conditions.  Stress period 2 adds wells.
 PROCESSING IC OPTIONS
 END OF IC OPTIONS
 PROCESSING ICDATA

             INITIAL HEAD =  100.0000     FOR LAYER   1

             INITIAL HEAD =  100.0000     FOR LAYER   2
 END PROCESSING ICDATA

 NPF -- NODE PROPERTY FLOW PACKAGE, VERSION 1, 3/30/2015 INPUT READ FROM UNIT 1006


 PROCESSING NPF OPTIONS
    CELL-BY-CELL FLOW INFORMATION WILL BE SAVED TO BINARY FILE WHENEVER ICBCFL IS NOT ZERO.
 #  VFC  (turn on vertical flow correction).  Default is off?
    VERTICAL CONDUCTANCE IS CONSTANT.
 #  CVCORRECTION (default is off)
    REWETTING IS ACTIVE.
    IWETIT HAS BEEN SET TO:     1
    WETTING FACTOR HAS BEEN SET TO:    1.000000    
    IHDWET HAS BEEN SET TO:     0
    THE VALUE FOR HDRY HAS BEEN SET TO:     777.770    
 END OF NPF OPTIONS
 #
 PROCESSING NPFDATA

                ICELLTYPE =              1 FOR LAYER   1

                ICELLTYPE =              0 FOR LAYER   2

                 ICELLAVG =         0



                             WETDRY FOR LAYER   1
 READING ON UNIT 1006 WITH FORMAT: (FREE)              

           1          2          3          4          5          6          7          8          9         10         11
          12         13         14         15
 .........................................................................................................................
   1    2.00       2.00       2.00       2.00       2.00       2.00       2.00       2.00      -2.00      -2.00      -2.00    
       -2.00      -2.00      -2.00      -2.00    
   2    2.00       2.00       2.00       2.00       2.00       2.00       2.00       2.00      -2.00      -2.00      -2.00    
       -2.00      -2.00      -2.00      -2.00    
   3    2.00       2.00       2.00      -2.00       2.00       2.00       2.00       2.00      -2.00      -2.00      -2.00    
       -2.00      -2.00      -2.00      -2.00    
   4    2.00       2.00       2.00       2.00       2.00       2.00       2.00       2.00      -2.00      -2.00      -2.00    
       -2.00      -2.00      -2.00      -2.00    
   5    2.00       2.00       2.00       2.00       2.00       2.00       2.00       2.00      -2.00      -2.00      -2.00    
       -2.00      -2.00      -2.00      -2.00    
   6    2.00       2.00       2.00       2.00       2.00       2.00       2.00       2.00      -2.00      -2.00      -2.00    
       -2.00      -2.00      -2.00      -2.00    
   7    2.00       2.00       2.00       2.00       2.00       2.00       2.00       2.00      -2.00      -2.00      -2.00    
       -2.00      -2.00      -2.00      -2.00    
   8    2.00       2.00       2.00      -2.00       2.00       2.00       2.00       2.00      -2.00      -2.00      -2.00    
       -2.00      -2.00      -2.00      -2.00    
   9    2.00       2.00       2.00       2.00       2.00       2.00       2.00       2.00      -2.00      -2.00      -2.00    
       -2.00      -2.00      -2.00      -2.00    
  10    2.00       2.00       2.00       2.00       2.00       2.00       2.00       2.00      -2.00      -2.00      -2.00    
       -2.00      -2.00      -2.00      -2.00    

                   WETDRY =   0.00000     FOR LAYER   2

                       HK =   4.00000     FOR LAYER   1

                       HK =  0.500000     FOR LAYER   2

                       VK =  1.000000E-02
 END PROCESSING NPFDATA

 STO -- STORAGE PACKAGE, VERSION 1, 5/19/2014 INPUT READ FROM UNIT 1013


 PROCESSING STORAGE OPTIONS
    CELL-BY-CELL FLOW INFORMATION WILL BE SAVED TO BINARY FILE WHENEVER ICBCFL IS NOT ZERO.
 #STORAGECOEFFICIENT uncomment if SS is entered as storage coefficient
 END OF STORAGE OPTIONS

 OUTPUT CONTROL IS SPECIFIED ONLY AT TIME STEPS FOR WHICH OUTPUT IS DESIRED
 BINARY CELL-BY-CELL BUDGET INFORMATION WILL BE WRITTEN TO FILE:
 test4_ets_list.cbc
 OPENED ON UNIT NUMBER:   1017
 HEAD             WILL BE SAVED WITH FORMAT: (15f7.2)                                                    
 SAVED HEAD             WILL BE LABELED
 IBOUND           WILL BE SAVED WITH FORMAT: (15i2)                                                      
 SAVED IBOUND           WILL BE LABELED
 HEAD PRINT FORMAT CODE IS   4
 DRAWDOWN PRINT FORMAT CODE IS   0
 IBOUND PRINT FORMAT CODE IS   0
 HEAD WILL BE SAVED ON UNIT 1018
 IBOUND WILL BE SAVED ON UNIT 1019

The Observation Process is active

Processing observation options:

Binary output precision set to: SINGLE
Text output number of digits of precision set to: 10
"Structured" option found. Cell locations for observations will be
read as: Layer Row Column.

 #

 REUSING STORAGE VALUES FROM LAST STRESS PERIOD

 REUSING WELS FROM LAST STRESS PERIOD
 #    layer       row       col    stage        cond       rbot  BoundName

 RIV NO.  LAYER   ROW    COL       STAGE         CONDUCTANCE  BOTTOM EL.      BOUNDARY NAME         
 ---------------------------------------------------------------------------------------------------
      1      1      1     15       101.0          0.1000E+05      100.00                      
      2      1      2     15       101.0          0.1000E+05      100.00      RIV2            
      3      1      3     15       101.0          0.1000E+05      100.00      RIV3            
      4      1      4     15       101.0          0.1000E+05      100.00                      
      5      1      5     15       101.0          0.1000E+05      100.00                      
      6      1      6     15       101.0          0.1000E+05      100.00                      
      7      1      7     15       101.0          0.1000E+05      100.00      RIVX            
      8      1      8     15       101.0          0.1000E+05      100.00      RIVX            
      9      1      9     15       101.0          0.1000E+05      100.00      RIVX            
     10      1     10     15       101.0          0.1000E+05      100.00                      
 # Stress-period block(s)

 GHB NO.  LAYER   ROW    COL       STAGE         CONDUCTANCE  BOUNDARY NAME         
 -----------------------------------------------------------------------------------
      1      1      3      1      100.00           1500.                      
      2      1      7      1       110.0           1400.      GHB2_UPPER      
      3      1      7      1       85.00           500.0      GHB2_LOWER      

      LAYER OR NODE INDEX =              1

                 RECHARGE =  2.000000E-04

 VAR1                     =  100.0000    
 # Lay  Row  Col  SURFACE   RATE    DEPTH  PXPD1  PXPD2  PETM1  PETM2   Multiplier  BoundName

 EVT NO.  LAYER   ROW    COL      SURFACE         MAX. RATE     EXT. DEPTH         PXDP            PXDP            PETM            PETM       BOUNDARY NAME         
 -------------------------------------------------------------------------------------------------------------------------------------------------------------------
      1      1      1     13       110.0          0.3000E-02      10.000          0.2000          0.5000          0.3000          0.1000E+00  ET-1            
      2      1      2     13       110.0          0.6000E-02      10.000          0.2000          0.5000          0.3000          0.1000E+00  ET-2            
      3      1      3     13       110.0          0.9000E-02      10.000          0.2000          0.5000          0.3000          0.1000E+00  ET-3            
      4      1      4     13       110.0          0.1200E-01      10.000          0.2000          0.5000          0.3000          0.1000E+00  ET-4            
      5      1      5     13       110.0          0.2000E-01      10.000          0.2000          0.5000          0.3000          0.1000E+00  ET-5            
      6      1      6     13       110.0          0.2000E-01      10.000          0.2000          0.5000          0.3000          0.1000E+00  ET-6            
      7      1      7     13       110.0          0.1400E-01      10.000          0.2000          0.5000          0.3000          0.1000E+00  ET-7            
      8      1      8     13       110.0          0.1000E-01      10.000          0.2000          0.5000          0.3000          0.1000E+00  ET-8            
      9      1      9     13       110.0          0.6000E-02      10.000          0.2000          0.5000          0.3000          0.1000E+00  ET-9            
     10      1     10     13       110.0          0.1500E-02      10.000          0.2000          0.5000          0.3000          0.1000E+00  ET-10           
     11      1      1     12       110.0          0.3000E-02      10.000          0.2000          0.5000          0.3000          0.1000E+00  ET-1            
     12      1      2     12       110.0          0.6000E-02      10.000          0.2000          0.5000          0.3000          0.1000E+00  ET-2            
     13      1      3     12       110.0          0.9000E-02      10.000          0.2000          0.5000          0.3000          0.1000E+00  ET-3            
     14      1      4     12       110.0          0.1200E-01      10.000          0.2000          0.5000          0.3000          0.1000E+00  ET-4            
     15      1      5     12       110.0          0.2000E-01      10.000          0.2000          0.5000          0.3000          0.1000E+00  ET-5            
     16      1      6     12       110.0          0.2000E-01      10.000          0.2000          0.5000          0.3000          0.1000E+00  ET-6            
     17      1      7     12       110.0          0.1400E-01      10.000          0.2000          0.5000          0.3000          0.1000E+00  ET-7            
     18      1      8     12       110.0          0.1000E-01      10.000          0.2000          0.5000          0.3000          0.1000E+00  ET-8            
     19      1      9     12       110.0          0.6000E-02      10.000          0.2000          0.5000          0.3000          0.1000E+00  ET-9            
     20      1     10     12       110.0          0.1500E-02      10.000          0.2000          0.5000          0.3000          0.1000E+00  ET-10           
 #L   R   C  shead  ehead  name

 CHD NO.  LAYER   ROW    COL       SHEAD           EHEAD      BOUNDARY NAME         
 -----------------------------------------------------------------------------------
      1      1      1      1       120.0           120.0      CHD-1           
      2      1      4      1       120.0           120.0                      
      3      1      5      1       120.0           120.0      CHD_GP          
      4      1      6      1       120.0           120.0      CHD_GP          
      5      1     10      1       120.0           120.0      CHD-10          
RIV   no.    1 value from time series:   101.00     for time:  0.000     to 1.0000    
RIV   no.    2 value from time series:   101.00     for time:  0.000     to 1.0000    
RIV   no.    3 value from time series:   101.00     for time:  0.000     to 1.0000    
RIV   no.    4 value from time series:   101.00     for time:  0.000     to 1.0000    
RIV   no.    5 value from time series:   101.00     for time:  0.000     to 1.0000    
RIV   no.    6 value from time series:   101.00     for time:  0.000     to 1.0000    
RIV   no.    7 value from time series:   101.00     for time:  0.000     to 1.0000    
RIV   no.    8 value from time series:   101.00     for time:  0.000     to 1.0000    
RIV   no.    9 value from time series:   101.00     for time:  0.000     to 1.0000    
RIV   no.   10 value from time series:   101.00     for time:  0.000     to 1.0000    
EVT   no.    1 value from time series:   787.50     for time:  0.000     to 1.0000    
EVT   no.    2 value from time series:   1575.0     for time:  0.000     to 1.0000    
EVT   no.    3 value from time series:   2362.5     for time:  0.000     to 1.0000    
EVT   no.    4 value from time series:   3150.0     for time:  0.000     to 1.0000    
EVT   no.   10 value from time series:   393.75     for time:  0.000     to 1.0000    
EVT   no.   11 value from time series:   787.50     for time:  0.000     to 1.0000    
EVT   no.   12 value from time series:   1575.0     for time:  0.000     to 1.0000    
EVT   no.   13 value from time series:   2362.5     for time:  0.000     to 1.0000    
EVT   no.   14 value from time series:   3150.0     for time:  0.000     to 1.0000    
EVT   no.   20 value from time series:   393.75     for time:  0.000     to 1.0000    

 CELL CONVERSIONS FOR ITER.=  1  STEP=  1  PERIOD=   1   (NODE or LRC)
     DRY             (1,1,2) DRY             (1,1,3) DRY             (1,1,4) DRY             (1,1,5) DRY             (1,1,6)
     DRY             (1,1,7) DRY             (1,1,8) DRY             (1,1,9) DRY            (1,1,10) DRY            (1,1,11)
     DRY            (1,1,12) DRY            (1,1,13) DRY            (1,1,14) DRY            (1,1,15) DRY             (1,2,1)
     DRY             (1,2,2) DRY             (1,2,3) DRY             (1,2,4) DRY             (1,2,5) DRY             (1,2,6)
     DRY             (1,2,7) DRY             (1,2,8) DRY             (1,2,9) DRY            (1,2,10) DRY            (1,2,11)
     DRY            (1,2,12) DRY            (1,2,13) DRY            (1,2,14) DRY            (1,2,15) DRY             (1,3,1)
     DRY             (1,3,2) DRY             (1,3,3) DRY             (1,3,4) DRY             (1,3,5) DRY             (1,3,6)
     DRY             (1,3,7) DRY             (1,3,8) DRY             (1,3,9) DRY            (1,3,10) DRY            (1,3,11)
     DRY            (1,3,12) DRY            (1,3,13) DRY            (1,3,14) DRY            (1,3,15) DRY             (1,4,2)
     DRY             (1,4,3) DRY             (1,4,4) DRY             (1,4,5) DRY             (1,4,6) DRY             (1,4,7)
     DRY             (1,4,8) DRY             (1,4,9) DRY            (1,4,10) DRY            (1,4,11) DRY            (1,4,12)
     DRY            (1,4,13) DRY            (1,4,14) DRY            (1,4,15) DRY             (1,5,2) DRY             (1,5,3)
     DRY             (1,5,4) DRY             (1,5,5) DRY             (1,5,6) DRY             (1,5,7) DRY             (1,5,8)
     DRY             (1,5,9) DRY            (1,5,10) DRY            (1,5,11) DRY            (1,5,12) DRY            (1,5,13)
     DRY            (1,5,14) DRY            (1,5,15) DRY             (1,6,2) DRY             (1,6,3) DRY             (1,6,4)
     DRY             (1,6,5) DRY             (1,6,6) DRY             (1,6,7) DRY             (1,6,8) DRY             (1,6,9)
     DRY            (1,6,10) DRY            (1,6,11) DRY            (1,6,12) DRY            (1,6,13) DRY            (1,6,14)
     DRY            (1,6,15) DRY             (1,7,1) DRY             (1,7,2) DRY             (1,7,3) DRY             (1,7,4)
     DRY             (1,7,5) DRY             (1,7,6) DRY             (1,7,7) DRY             (1,7,8) DRY             (1,7,9)
     DRY            (1,7,10) DRY            (1,7,11) DRY            (1,7,12) DRY            (1,7,13) DRY            (1,7,14)
     DRY            (1,7,15) DRY             (1,8,1) DRY             (1,8,2) DRY             (1,8,3) DRY             (1,8,4)
     DRY             (1,8,5) DRY             (1,8,6) DRY             (1,8,7) DRY             (1,8,8) DRY             (1,8,9)
     DRY            (1,8,10) DRY            (1,8,11) DRY            (1,8,12) DRY            (1,8,13) DRY            (1,8,14)
     DRY            (1,8,15) DRY             (1,9,1) DRY             (1,9,2) DRY             (1,9,3) DRY             (1,9,4)
     DRY             (1,9,5) DRY             (1,9,6) DRY             (1,9,7) DRY             (1,9,8) DRY             (1,9,9)
     DRY            (1,9,10) DRY            (1,9,11) DRY            (1,9,12) DRY            (1,9,13) DRY            (1,9,14)
     DRY            (1,9,15) DRY            (1,10,2) DRY            (1,10,3) DRY            (1,10,4) DRY            (1,10,5)
     DRY            (1,10,6) DRY            (1,10,7) DRY            (1,10,8) DRY            (1,10,9) DRY           (1,10,10)
     DRY           (1,10,11) DRY           (1,10,12) DRY           (1,10,13) DRY           (1,10,14) DRY           (1,10,15)

 CELL CONVERSIONS FOR ITER.=  2  STEP=  1  PERIOD=   1   (NODE or LRC)
     WET             (1,1,2) WET             (1,1,3) WET             (1,1,4) WET             (1,1,5) WET             (1,1,6)
     WET             (1,1,7) WET             (1,1,8) WET             (1,1,9) WET            (1,1,10) WET            (1,1,11)
     WET            (1,1,12) WET            (1,1,13) WET            (1,1,14) WET            (1,1,15) WET             (1,2,1)
     WET             (1,2,2) WET             (1,2,3) WET             (1,2,4) WET             (1,2,5) WET             (1,2,6)
     WET             (1,2,7) WET             (1,2,8) WET             (1,2,9) WET            (1,2,10) WET            (1,2,11)
     WET            (1,2,12) WET            (1,2,13) WET            (1,2,14) WET            (1,2,15) WET             (1,3,1)
     WET             (1,3,2) WET             (1,3,3) WET             (1,3,4) WET             (1,3,5) WET             (1,3,6)
     WET             (1,3,7) WET             (1,3,8) WET             (1,3,9) WET            (1,3,10) WET            (1,3,11)
     WET            (1,3,12) WET            (1,3,13) WET            (1,3,14) WET            (1,3,15) WET             (1,4,2)
     WET             (1,4,3) WET             (1,4,4) WET             (1,4,5) WET             (1,4,6) WET             (1,4,7)
     WET             (1,4,8) WET             (1,4,9) WET            (1,4,10) WET            (1,4,11) WET            (1,4,12)
     WET            (1,4,13) WET            (1,4,14) WET            (1,4,15) WET             (1,5,2) WET             (1,5,3)
     WET             (1,5,4) WET             (1,5,5) WET             (1,5,6) WET             (1,5,7) WET             (1,5,8)
     WET             (1,5,9) WET            (1,5,10) WET            (1,5,11) WET            (1,5,12) WET            (1,5,13)
     WET            (1,5,14) WET            (1,5,15) WET             (1,6,2) WET             (1,6,3) WET             (1,6,4)
     WET             (1,6,5) WET             (1,6,6) WET             (1,6,7) WET             (1,6,8) WET             (1,6,9)
     WET            (1,6,10) WET            (1,6,11) WET            (1,6,12) WET            (1,6,13) WET            (1,6,14)
     WET            (1,6,15) WET             (1,7,1) WET             (1,7,2) WET             (1,7,3) WET             (1,7,4)
     WET             (1,7,5) WET             (1,7,6) WET             (1,7,7) WET             (1,7,8) WET             (1,7,9)
     WET            (1,7,10) WET            (1,7,11) WET            (1,7,12) WET            (1,7,13) WET            (1,7,14)
     WET            (1,7,15) WET             (1,8,1) WET             (1,8,2) WET             (1,8,3) WET             (1,8,4)
     WET             (1,8,5) WET             (1,8,6) WET             (1,8,7) WET             (1,8,8) WET             (1,8,9)
     WET            (1,8,10) WET            (1,8,11) WET            (1,8,12) WET            (1,8,13) WET            (1,8,14)
     WET            (1,8,15) WET             (1,9,1) WET             (1,9,2) WET             (1,9,3) WET             (1,9,4)
     WET             (1,9,5) WET             (1,9,6) WET             (1,9,7) WET             (1,9,8) WET             (1,9,9)
     WET            (1,9,10) WET            (1,9,11) WET            (1,9,12) WET            (1,9,13) WET            (1,9,14)
     WET            (1,9,15) WET            (1,10,2) WET            (1,10,3) WET            (1,10,4) WET            (1,10,5)
     WET            (1,10,6) WET            (1,10,7) WET            (1,10,8) WET            (1,10,9) WET           (1,10,10)
     WET           (1,10,11) WET           (1,10,12) WET           (1,10,13) WET           (1,10,14) WET           (1,10,15)
RIV   no.    1 value from time series:   101.00     for time:  0.000     to 1.0000    
RIV   no.    2 value from time series:   101.00     for time:  0.000     to 1.0000    
RIV   no.    3 value from time series:   101.00     for time:  0.000     to 1.0000    
RIV   no.    4 value from time series:   101.00     for time:  0.000     to 1.0000    
RIV   no.    5 value from time series:   101.00     for time:  0.000     to 1.0000    
RIV   no.    6 value from time series:   101.00     for time:  0.000     to 1.0000    
RIV   no.    7 value from time series:   101.00     for time:  0.000     to 1.0000    
RIV   no.    8 value from time series:   101.00     for time:  0.000     to 1.0000    
RIV   no.    9 value from time series:   101.00     for time:  0.000     to 1.0000    
RIV   no.   10 value from time series:   101.00     for time:  0.000     to 1.0000    
EVT   no.    1 value from time series:   787.50     for time:  0.000     to 1.0000    
EVT   no.    2 value from time series:   1575.0     for time:  0.000     to 1.0000    
EVT   no.    3 value from time series:   2362.5     for time:  0.000     to 1.0000    
EVT   no.    4 value from time series:   3150.0     for time:  0.000     to 1.0000    
EVT   no.   10 value from time series:   393.75     for time:  0.000     to 1.0000    
EVT   no.   11 value from time series:   787.50     for time:  0.000     to 1.0000    
EVT   no.   12 value from time series:   1575.0     for time:  0.000     to 1.0000    
EVT   no.   13 value from time series:   2362.5     for time:  0.000     to 1.0000    
EVT   no.   14 value from time series:   3150.0     for time:  0.000     to 1.0000    
EVT   no.   20 value from time series:   393.75     for time:  0.000     to 1.0000    

 OUTPUT CONTROL FOR STRESS PERIOD    1   TIME STEP    1
    PRINT BUDGET
    PRINT HEAD
    PRINT HEAD FOR ALL LAYERS
    SAVE BUDGET
    SAVE HEAD
    SAVE HEAD FOR ALL LAYERS
 UBDSV1 SAVING      STORAGE(SS) ON UNIT   1017 AT TIME STEP      1, STRESS PERIOD      1
 UBDSV1 SAVING      STORAGE(SY) ON UNIT   1017 AT TIME STEP      1, STRESS PERIOD      1
 UBDSV1 SAVING FLOW RIGHT FACE  ON UNIT   1017 AT TIME STEP      1, STRESS PERIOD      1
 UBDSV1 SAVING FLOW FRONT FACE  ON UNIT   1017 AT TIME STEP      1, STRESS PERIOD      1
 UBDSV1 SAVING FLOW LOWER FACE  ON UNIT   1017 AT TIME STEP      1, STRESS PERIOD      1
 UBDSV4 SAVING WELLS NEAR RIVER ON UNIT   1017 AT TIME STEP      1, STRESS PERIOD      1
 UBDSV4 SAVING RIVER            ON UNIT   1017 AT TIME STEP      1, STRESS PERIOD      1

 RIVER              PERIOD  1   STEP  1
 BOUNDARY      1   LAYER   1   ROW     1   COL    15   RATE    -395.473    
 BOUNDARY      2   LAYER   1   ROW     2   COL    15   RATE    -377.587      RIV2
 BOUNDARY      3   LAYER   1   ROW     3   COL    15   RATE    -350.736      RIV3
 BOUNDARY      4   LAYER   1   ROW     4   COL    15   RATE    -322.771    
 BOUNDARY      5   LAYER   1   ROW     5   COL    15   RATE    -301.113    
 BOUNDARY      6   LAYER   1   ROW     6   COL    15   RATE    -300.486    
 BOUNDARY      7   LAYER   1   ROW     7   COL    15   RATE    -321.334      RIVX
 BOUNDARY      8   LAYER   1   ROW     8   COL    15   RATE    -352.323      RIVX
 BOUNDARY      9   LAYER   1   ROW     9   COL    15   RATE    -384.705      RIVX
 BOUNDARY     10   LAYER   1   ROW    10   COL    15   RATE    -407.784    

 GHB LAKES          PERIOD  1   STEP  1
 BOUNDARY      1   LAYER   1   ROW     3   COL     1   RATE    -7764.73    
 BOUNDARY      2   LAYER   1   ROW     7   COL     1   RATE     4439.90      GHB2_UPPER
 BOUNDARY      3   LAYER   1   ROW     7   COL     1   RATE    -10914.3      GHB2_LOWER
 UBDSV4 SAVING RECHARGE         ON UNIT   1017 AT TIME STEP      1, STRESS PERIOD      1

 RECHARGE           PERIOD  1   STEP  1
 BOUNDARY      2   LAYER   1   ROW     1   COL     2   RATE     50.0000    
 BOUNDARY      3   LAYER   1   ROW     1   COL     3   RATE     50.0000    
 BOUNDARY      4   LAYER   1   ROW     1   COL     4   RATE     50.0000    
 BOUNDARY      5   LAYER   1   ROW     1   COL     5   RATE     50.0000    
 BOUNDARY      6   LAYER   1   ROW     1   COL     6   RATE     50.0000    
 BOUNDARY      7   LAYER   1   ROW     1   COL     7   RATE     50.0000    
 BOUNDARY      8   LAYER   1   ROW     1   COL     8   RATE     50.0000    
 BOUNDARY      9   LAYER   1   ROW     1   COL     9   RATE     50.0000    
 BOUNDARY     10   LAYER   1   ROW     1   COL    10   RATE     50.0000    
 BOUNDARY     11   LAYER   1   ROW     1   COL    11   RATE     50.0000    
 BOUNDARY     12   LAYER   1   ROW     1   COL    12   RATE     50.0000    
 BOUNDARY     13   LAYER   1   ROW     1   COL    13   RATE     50.0000    
 BOUNDARY     14   LAYER   1   ROW     1   COL    14   RATE     50.0000    
 BOUNDARY     15   LAYER   1   ROW     1   COL    15   RATE     50.0000    
 BOUNDARY     16   LAYER   1   ROW     2   COL     1   RATE     50.0000    
 BOUNDARY     17   LAYER   1   ROW     2   COL     2   RATE     50.0000    
 BOUNDARY     18   LAYER   1   ROW     2   COL     3   RATE     50.0000    
 BOUNDARY     19   LAYER   1   ROW     2   COL     4   RATE     50.0000    
 BOUNDARY     20   LAYER   1   ROW     2   COL     5   RATE     50.0000    
 BOUNDARY     21   LAYER   1   ROW     2   COL     6   RATE     50.0000    
 BOUNDARY     22   LAYER   1   ROW     2   COL     7   RATE     50.0000    
 BOUNDARY     23   LAYER   1   ROW     2   COL     8   RATE     50.0000    
 BOUNDARY     24   LAYER   1   ROW     2   COL     9   RATE     50.0000    
 BOUNDARY     25   LAYER   1   ROW     2   COL    10   RATE     50.0000    
 BOUNDARY     26   LAYER   1   ROW     2   COL    11   RATE     50.0000    
 BOUNDARY     27   LAYER   1   ROW     2   COL    12   RATE     50.0000    
 BOUNDARY     28   LAYER   1   ROW     2   COL    13   RATE     50.0000    
 BOUNDARY     29   LAYER   1   ROW     2   COL    14   RATE     50.0000    
 BOUNDARY     30   LAYER   1   ROW     2   COL    15   RATE     50.0000    
 BOUNDARY     31   LAYER   1   ROW     3   COL     1   RATE     50.0000    
 BOUNDARY     32   LAYER   1   ROW     3   COL     2   RATE     50.0000    
 BOUNDARY     33   LAYER   1   ROW     3   COL     3   RATE     50.0000    
 BOUNDARY     34   LAYER   1   ROW     3   COL     4   RATE     50.0000    
 BOUNDARY     35   LAYER   1   ROW     3   COL     5   RATE     50.0000    
 BOUNDARY     36   LAYER   1   ROW     3   COL     6   RATE     50.0000    
 BOUNDARY     37   LAYER   1   ROW     3   COL     7   RATE     50.0000    
 BOUNDARY     38   LAYER   1   ROW     3   COL     8   RATE     50.0000    
 BOUNDARY     39   LAYER   1   ROW     3   COL     9   RATE     50.0000    
 BOUNDARY     40   LAYER   1   ROW     3   COL    10   RATE     50.0000    
 BOUNDARY     41   LAYER   1   ROW     3   COL    11   RATE     50.0000    
 BOUNDARY     42   LAYER   1   ROW     3   COL    12   RATE     50.0000    
 BOUNDARY     43   LAYER   1   ROW     3   COL    13   RATE     50.0000    
 BOUNDARY     44   LAYER   1   ROW     3   COL    14   RATE     50.0000    
 BOUNDARY     45   LAYER   1   ROW     3   COL    15   RATE     50.0000    
 BOUNDARY     47   LAYER   1   ROW     4   COL     2   RATE     50.0000    
 BOUNDARY     48   LAYER   1   ROW     4   COL     3   RATE     50.0000    
 BOUNDARY     49   LAYER   1   ROW     4   COL     4   RATE     50.0000    
 BOUNDARY     50   LAYER   1   ROW     4   COL     5   RATE     50.0000    
 BOUNDARY     51   LAYER   1   ROW     4   COL     6   RATE     50.0000    
 BOUNDARY     52   LAYER   1   ROW     4   COL     7   RATE     50.0000    
 BOUNDARY     53   LAYER   1   ROW     4   COL     8   RATE     50.0000    
 BOUNDARY     54   LAYER   1   ROW     4   COL     9   RATE     50.0000    
 BOUNDARY     55   LAYER   1   ROW     4   COL    10   RATE     50.0000    
 BOUNDARY     56   LAYER   1   ROW     4   COL    11   RATE     50.0000    
 BOUNDARY     57   LAYER   1   ROW     4   COL    12   RATE     50.0000    
 BOUNDARY     58   LAYER   1   ROW     4   COL    13   RATE     50.0000    
 BOUNDARY     59   LAYER   1   ROW     4   COL    14   RATE     50.0000    
 BOUNDARY     60   LAYER   1   ROW     4   COL    15   RATE     50.0000    
 BOUNDARY     62   LAYER   1   ROW     5   COL     2   RATE     50.0000    
 BOUNDARY     63   LAYER   1   ROW     5   COL     3   RATE     50.0000    
 BOUNDARY     64   LAYER   1   ROW     5   COL     4   RATE     50.0000    
 BOUNDARY     65   LAYER   1   ROW     5   COL     5   RATE     50.0000    
 BOUNDARY     66   LAYER   1   ROW     5   COL     6   RATE     50.0000    
 BOUNDARY     67   LAYER   1   ROW     5   COL     7   RATE     50.0000    
 BOUNDARY     68   LAYER   1   ROW     5   COL     8   RATE     50.0000    
 BOUNDARY     69   LAYER   1   ROW     5   COL     9   RATE     50.0000    
 BOUNDARY     70   LAYER   1   ROW     5   COL    10   RATE     50.0000    
 BOUNDARY     71   LAYER   1   ROW     5   COL    11   RATE     50.0000    
 BOUNDARY     72   LAYER   1   ROW     5   COL    12   RATE     50.0000    
 BOUNDARY     73   LAYER   1   ROW     5   COL    13   RATE     50.0000    
 BOUNDARY     74   LAYER   1   ROW     5   COL    14   RATE     50.0000    
 BOUNDARY     75   LAYER   1   ROW     5   COL    15   RATE     50.0000    
 BOUNDARY     77   LAYER   1   ROW     6   COL     2   RATE     50.0000    
 BOUNDARY     78   LAYER   1   ROW     6   COL     3   RATE     50.0000    
 BOUNDARY     79   LAYER   1   ROW     6   COL     4   RATE     50.0000    
 BOUNDARY     80   LAYER   1   ROW     6   COL     5   RATE     50.0000    
 BOUNDARY     81   LAYER   1   ROW     6   COL     6   RATE     50.0000    
 BOUNDARY     82   LAYER   1   ROW     6   COL     7   RATE     50.0000    
 BOUNDARY     83   LAYER   1   ROW     6   COL     8   RATE     50.0000    
 BOUNDARY     84   LAYER   1   ROW     6   COL     9   RATE     50.0000    
 BOUNDARY     85   LAYER   1   ROW     6   COL    10   RATE     50.0000    
 BOUNDARY     86   LAYER   1   ROW     6   COL    11   RATE     50.0000    
 BOUNDARY     87   LAYER   1   ROW     6   COL    12   RATE     50.0000    
 BOUNDARY     88   LAYER   1   ROW     6   COL    13   RATE     50.0000    
 BOUNDARY     89   LAYER   1   ROW     6   COL    14   RATE     50.0000    
 BOUNDARY     90   LAYER   1   ROW     6   COL    15   RATE     50.0000    
 BOUNDARY     91   LAYER   1   ROW     7   COL     1   RATE     50.0000    
 BOUNDARY     92   LAYER   1   ROW     7   COL     2   RATE     50.0000    
 BOUNDARY     93   LAYER   1   ROW     7   COL     3   RATE     50.0000    
 BOUNDARY     94   LAYER   1   ROW     7   COL     4   RATE     50.0000    
 BOUNDARY     95   LAYER   1   ROW     7   COL     5   RATE     50.0000    
 BOUNDARY     96   LAYER   1   ROW     7   COL     6   RATE     50.0000    
 BOUNDARY     97   LAYER   1   ROW     7   COL     7   RATE     50.0000    
 BOUNDARY     98   LAYER   1   ROW     7   COL     8   RATE     50.0000    
 BOUNDARY     99   LAYER   1   ROW     7   COL     9   RATE     50.0000    
 BOUNDARY    100   LAYER   1   ROW     7   COL    10   RATE     50.0000    
 BOUNDARY    101   LAYER   1   ROW     7   COL    11   RATE     50.0000    
 BOUNDARY    102   LAYER   1   ROW     7   COL    12   RATE     50.0000    
 BOUNDARY    103   LAYER   1   ROW     7   COL    13   RATE     50.0000    
 BOUNDARY    104   LAYER   1   ROW     7   COL    14   RATE     50.0000    
 BOUNDARY    105   LAYER   1   ROW     7   COL    15   RATE     50.0000    
 BOUNDARY    106   LAYER   1   ROW     8   COL     1   RATE     50.0000    
 BOUNDARY    107   LAYER   1   ROW     8   COL     2   RATE     50.0000    
 BOUNDARY    108   LAYER   1   ROW     8   COL     3   RATE     50.0000    
 BOUNDARY    109   LAYER   1   ROW     8   COL     4   RATE     50.0000    
 BOUNDARY    110   LAYER   1   ROW     8   COL     5   RATE     50.0000    
 BOUNDARY    111   LAYER   1   ROW     8   COL     6   RATE     50.0000    
 BOUNDARY    112   LAYER   1   ROW     8   COL     7   RATE     50.0000    
 BOUNDARY    113   LAYER   1   ROW     8   COL     8   RATE     50.0000    
 BOUNDARY    114   LAYER   1   ROW     8   COL     9   RATE     50.0000    
 BOUNDARY    115   LAYER   1   ROW     8   COL    10   RATE     50.0000    
 BOUNDARY    116   LAYER   1   ROW     8   COL    11   RATE     50.0000    
 BOUNDARY    117   LAYER   1   ROW     8   COL    12   RATE     50.0000    
 BOUNDARY    118   LAYER   1   ROW     8   COL    13   RATE     50.0000    
 BOUNDARY    119   LAYER   1   ROW     8   COL    14   RATE     50.0000    
 BOUNDARY    120   LAYER   1   ROW     8   COL    15   RATE     50.0000    
 BOUNDARY    121   LAYER   1   ROW     9   COL     1   RATE     50.0000    
 BOUNDARY    122   LAYER   1   ROW     9   COL     2   RATE     50.0000    
 BOUNDARY    123   LAYER   1   ROW     9   COL     3   RATE     50.0000    
 BOUNDARY    124   LAYER   1   ROW     9   COL     4   RATE     50.0000    
 BOUNDARY    125   LAYER   1   ROW     9   COL     5   RATE     50.0000    
 BOUNDARY    126   LAYER   1   ROW     9   COL     6   RATE     50.0000    
 BOUNDARY    127   LAYER   1   ROW     9   COL     7   RATE     50.0000    
 BOUNDARY    128   LAYER   1   ROW     9   COL     8   RATE     50.0000    
 BOUNDARY    129   LAYER   1   ROW     9   COL     9   RATE     50.0000    
 BOUNDARY    130   LAYER   1   ROW     9   COL    10   RATE     50.0000    
 BOUNDARY    131   LAYER   1   ROW     9   COL    11   RATE     50.0000    
 BOUNDARY    132   LAYER   1   ROW     9   COL    12   RATE     50.0000    
 BOUNDARY    133   LAYER   1   ROW     9   COL    13   RATE     50.0000    
 BOUNDARY    134   LAYER   1   ROW     9   COL    14   RATE     50.0000    
 BOUNDARY    135   LAYER   1   ROW     9   COL    15   RATE     50.0000    
 BOUNDARY    137   LAYER   1   ROW    10   COL     2   RATE     50.0000    
 BOUNDARY    138   LAYER   1   ROW    10   COL     3   RATE     50.0000    
 BOUNDARY    139   LAYER   1   ROW    10   COL     4   RATE     50.0000    
 BOUNDARY    140   LAYER   1   ROW    10   COL     5   RATE     50.0000    
 BOUNDARY    141   LAYER   1   ROW    10   COL     6   RATE     50.0000    
 BOUNDARY    142   LAYER   1   ROW    10   COL     7   RATE     50.0000    
 BOUNDARY    143   LAYER   1   ROW    10   COL     8   RATE     50.0000    
 BOUNDARY    144   LAYER   1   ROW    10   COL     9   RATE     50.0000    
 BOUNDARY    145   LAYER   1   ROW    10   COL    10   RATE     50.0000    
 BOUNDARY    146   LAYER   1   ROW    10   COL    11   RATE     50.0000    
 BOUNDARY    147   LAYER   1   ROW    10   COL    12   RATE     50.0000    
 BOUNDARY    148   LAYER   1   ROW    10   COL    13   RATE     50.0000    
 BOUNDARY    149   LAYER   1   ROW    10   COL    14   RATE     50.0000    
 BOUNDARY    150   LAYER   1   ROW    10   COL    15   RATE     50.0000    
 UBDSV4 SAVING ET SEGS          ON UNIT   1017 AT TIME STEP      1, STRESS PERIOD      1

 ET SEGS            PERIOD  1   STEP  1
 BOUNDARY      1   LAYER   1   ROW     1   COL    13   RATE    -59.7917      ET-1
 BOUNDARY      2   LAYER   1   ROW     2   COL    13   RATE    -112.980      ET-2
 BOUNDARY      3   LAYER   1   ROW     3   COL    13   RATE    -155.971      ET-3
 BOUNDARY      4   LAYER   1   ROW     4   COL    13   RATE    -189.379      ET-4
 BOUNDARY      5   LAYER   1   ROW     5   COL    13   RATE    -272.601      ET-5
 BOUNDARY      6   LAYER   1   ROW     6   COL    13   RATE    -271.739      ET-6
 BOUNDARY      7   LAYER   1   ROW     7   COL    13   RATE    -207.928      ET-7
 BOUNDARY      8   LAYER   1   ROW     8   COL    13   RATE    -164.995      ET-8
 BOUNDARY      9   LAYER   1   ROW     9   COL    13   RATE    -109.525      ET-9
 BOUNDARY     10   LAYER   1   ROW    10   COL    13   RATE    -30.9748      ET-10
 BOUNDARY     11   LAYER   1   ROW     1   COL    12   RATE    -90.7546      ET-1
 BOUNDARY     12   LAYER   1   ROW     2   COL    12   RATE    -157.390      ET-2
 BOUNDARY     13   LAYER   1   ROW     3   COL    12   RATE    -220.796      ET-3
 BOUNDARY     14   LAYER   1   ROW     4   COL    12   RATE    -273.141      ET-4
 BOUNDARY     15   LAYER   1   ROW     5   COL    12   RATE    -400.356      ET-5
 BOUNDARY     16   LAYER   1   ROW     6   COL    12   RATE    -399.461      ET-6
 BOUNDARY     17   LAYER   1   ROW     7   COL    12   RATE    -300.630      ET-7
 BOUNDARY     18   LAYER   1   ROW     8   COL    12   RATE    -233.670      ET-8
 BOUNDARY     19   LAYER   1   ROW     9   COL    12   RATE    -156.912      ET-9
 BOUNDARY     20   LAYER   1   ROW    10   COL    12   RATE    -49.6083      ET-10
 UBDSV4 SAVING CONSTANT HEADS   ON UNIT   1017 AT TIME STEP      1, STRESS PERIOD      1

 CONSTANT HEADS     PERIOD  1   STEP  1
 BOUNDARY      1   LAYER   1   ROW     1   COL     1   RATE     2655.34      CHD-1
 BOUNDARY      2   LAYER   1   ROW     4   COL     1   RATE     4717.41    
 BOUNDARY      3   LAYER   1   ROW     5   COL     1   RATE     838.728      CHD_GP
 BOUNDARY      4   LAYER   1   ROW     6   COL     1   RATE     4340.95      CHD_GP
 BOUNDARY      5   LAYER   1   ROW    10   COL     1   RATE     1809.64      CHD-10
1
  HEAD             IN LAYER   1 AT END OF TIME STEP   1 IN STRESS PERIOD    1
  ---------------------------------------------------------------------------

           1       2       3       4       5       6       7       8       9      10      11      12      13      14      15
 ...........................................................................................................................
   1   120.00  116.81  115.59  114.88  114.21  113.43  112.50  111.39  110.10  108.64  107.01  105.23  103.80  102.55  101.04
   2   113.68  114.66  114.92  114.68  114.16  113.42  112.49  111.37  110.08  108.58  106.90  105.00  103.59  102.46  101.04
   3   105.18  112.97  114.55  114.61  114.14  113.41  112.48  111.35  110.03  108.49  106.72  104.67  103.30  102.33  101.04
   4   120.00  116.50  115.49  114.88  114.23  113.44  112.48  111.34  109.98  108.40  106.54  104.34  103.01  102.20  101.03
   5   120.00  117.27  115.86  115.02  114.28  113.46  112.48  111.33  109.96  108.34  106.40  104.00  102.73  102.10  101.03
   6   120.00  116.58  115.53  114.90  114.25  113.45  112.49  111.34  109.97  108.34  106.40  103.99  102.72  102.10  101.03
   7   106.83  113.26  114.61  114.64  114.18  113.45  112.50  111.36  110.01  108.42  106.54  104.29  102.97  102.19  101.03
   8   112.72  114.24  114.81  114.70  114.21  113.48  112.53  111.40  110.07  108.53  106.75  104.67  103.30  102.34  101.04
   9   116.31  115.90  115.48  114.97  114.33  113.53  112.57  111.44  110.14  108.64  106.96  105.07  103.65  102.49  101.04
  10   120.00  117.37  116.07  115.21  114.43  113.58  112.60  111.47  110.18  108.72  107.11  105.39  103.93  102.60  101.04
1
  HEAD             IN LAYER   2 AT END OF TIME STEP   1 IN STRESS PERIOD    1
  ---------------------------------------------------------------------------

           1       2       3       4       5       6       7       8       9      10      11      12      13      14      15
 ...........................................................................................................................
   1   116.06  115.51  115.00  114.48  113.86  113.08  112.15  111.05  109.78  108.39  106.90  105.42  104.13  103.10  102.39
   2   114.65  114.81  114.73  114.39  113.83  113.07  112.14  111.03  109.76  108.35  106.84  105.33  104.05  103.05  102.36
   3   113.57  114.42  114.61  114.36  113.82  113.07  112.13  111.02  109.73  108.28  106.73  105.19  103.92  102.96  102.32
   4   115.83  115.40  114.99  114.50  113.87  113.09  112.13  111.00  109.69  108.22  106.63  105.05  103.79  102.87  102.27
   5   116.44  115.80  115.18  114.58  113.91  113.11  112.14  111.00  109.67  108.18  106.56  104.94  103.69  102.82  102.24
   6   115.90  115.44  115.02  114.52  113.89  113.11  112.15  111.00  109.68  108.18  106.56  104.94  103.69  102.82  102.24
   7   113.78  114.49  114.66  114.40  113.87  113.11  112.16  111.03  109.71  108.24  106.64  105.05  103.79  102.88  102.28
   8   114.42  114.71  114.74  114.45  113.90  113.14  112.19  111.06  109.77  108.32  106.76  105.22  103.94  102.98  102.33
   9   115.62  115.43  115.10  114.62  113.98  113.19  112.23  111.10  109.82  108.40  106.89  105.39  104.10  103.08  102.38
  10   116.67  116.06  115.42  114.77  114.05  113.22  112.25  111.13  109.85  108.45  106.97  105.50  104.20  103.14  102.42

 HEAD WILL BE SAVED ON UNIT 1018 AT END OF TIME STEP    1, STRESS PERIOD    1
1
  VOLUME BUDGET FOR ENTIRE MODEL AT END OF TIME STEP    1, STRESS PERIOD   1
  ------------------------------------------------------------------------------

     CUMULATIVE VOLUME      L**3       RATES FOR THIS TIME STEP      L**3/T
     ------------------                 ------------------------

           IN:                                      IN:
           ---                                      ---
         STORAGE(SS) =           0.0000           STORAGE(SS) =           0.0000
         STORAGE(SY) =           0.0000           STORAGE(SY) =           0.0000
    WELLS NEAR RIVER =           0.0000      WELLS NEAR RIVER =           0.0000
               RIVER =           0.0000                 RIVER =           0.0000
           GHB LAKES =        4439.8999             GHB LAKES =        4439.8999
            RECHARGE =        7250.0000              RECHARGE =        7250.0000
             ET SEGS =           0.0000               ET SEGS =           0.0000
      CONSTANT HEADS =       14362.0658        CONSTANT HEADS =       14362.0658

            TOTAL IN =       26051.9656              TOTAL IN =       26051.9656

          OUT:                                     OUT:
          ----                                     ----
         STORAGE(SS) =           0.0000           STORAGE(SS) =           0.0000
         STORAGE(SY) =           0.0000           STORAGE(SY) =           0.0000
    WELLS NEAR RIVER =           0.0000      WELLS NEAR RIVER =           0.0000
               RIVER =        3514.3129                 RIVER =        3514.3129
           GHB LAKES =       18679.0546             GHB LAKES =       18679.0546
            RECHARGE =           0.0000              RECHARGE =           0.0000
             ET SEGS =        3858.6035               ET SEGS =        3858.6035
      CONSTANT HEADS =           0.0000        CONSTANT HEADS =           0.0000

           TOTAL OUT =       26051.9710             TOTAL OUT =       26051.9710

            IN - OUT =      -5.4005E-03              IN - OUT =      -5.4005E-03

 PERCENT DISCREPANCY =          -0.00     PERCENT DISCREPANCY =          -0.00






         TIME SUMMARY AT END OF TIME STEP    1 IN STRESS PERIOD    1
                    SECONDS     MINUTES      HOURS       DAYS        YEARS
                    -----------------------------------------------------------
   TIME STEP LENGTH  86400.      1440.0      24.000     1.00000     2.73785E-03
 STRESS PERIOD TIME  86400.      1440.0      24.000     1.00000     2.73785E-03
         TOTAL TIME  86400.      1440.0      24.000     1.00000     2.73785E-03


 UPDATING STORAGE VALUES
 #iconvert(nodes) is 0:confined, 1:convertible

                 ICONVERT =         1
 #ss(nodes) specific storage

         SPECIFIC STORAGE =  1.000000E-05
 #sy(nodes) specific yield

           SPECIFIC YIELD =  0.200000    
 END UPDATING STORAGE VALUES
 #        k         i         j      flow      var1    var2 var3

 WEL NO.  LAYER   ROW    COL     STRESS RATE  BOUNDARY NAME         VAR1            VAR2            VAR3            
 -------------------------------------------------------------------------------------------------------------------
      1      2      3      4     -0.3000E+05  WELL_1                1.0000           2.000           3.000    
      2      2      8      4      -4200.      WELL_2                 4.000           5.000           6.000    
      3      2      4      6     -10.000                             7.000           8.000           9.000    
      4      2      5      8      -20.00                             17.00           18.00           19.00    
      5      2      2      9      -40.00                             27.00           28.00           29.00    

 REUSING RIVS FROM LAST STRESS PERIOD

 GHB NO.  LAYER   ROW    COL       STAGE         CONDUCTANCE  BOUNDARY NAME         
 -----------------------------------------------------------------------------------
      1      1      3      1      100.00           1502.                      
      2      1      7      1       110.0           1402.      GHB2_UPPER      
      3      1      7      1       85.00           502.0      GHB2_LOWER      

                 RECHARGE =  3.000000E-03

 REUSING EVTS FROM LAST STRESS PERIOD
 #L   R   C  shead  ehead  name

 CHD NO.  LAYER   ROW    COL       SHEAD           EHEAD      BOUNDARY NAME         
 -----------------------------------------------------------------------------------
      1      1      1      1       120.0           120.0      CHD-1           
      2      1      4      1       120.0           120.0                      
      3      1      5      1       120.0           120.0      CHD_GP          
      4      1      6      1       120.0           120.0      CHD_GP          
      5      1     10      1       120.0           120.0      CHD-10          
WEL   no.    1 value from time series:  -30000.     for time: 1.0000     to  1.200    
WEL   no.    2 value from time series:  -2200.0     for time: 1.0000     to  1.200    
RIV   no.    1 value from time series:   101.20     for time: 1.0000     to  1.200    
RIV   no.    2 value from time series:   101.20     for time: 1.0000     to  1.200    
RIV   no.    3 value from time series:   101.20     for time: 1.0000     to  1.200    
RIV   no.    4 value from time series:   101.20     for time: 1.0000     to  1.200    
RIV   no.    5 value from time series:   101.20     for time: 1.0000     to  1.200    
RIV   no.    6 value from time series:   101.20     for time: 1.0000     to  1.200    
RIV   no.    7 value from time series:   101.20     for time: 1.0000     to  1.200    
RIV   no.    8 value from time series:   101.20     for time: 1.0000     to  1.200    
RIV   no.    9 value from time series:   101.20     for time: 1.0000     to  1.200    
RIV   no.   10 value from time series:   101.20     for time: 1.0000     to  1.200    
EVT   no.    1 value from time series:   683.44     for time: 1.0000     to  1.200    
EVT   no.    2 value from time series:   1366.9     for time: 1.0000     to  1.200    
EVT   no.    3 value from time series:   2050.3     for time: 1.0000     to  1.200    
EVT   no.    4 value from time series:   2733.8     for time: 1.0000     to  1.200    
EVT   no.   10 value from time series:   341.72     for time: 1.0000     to  1.200    
EVT   no.   11 value from time series:   683.44     for time: 1.0000     to  1.200    
EVT   no.   12 value from time series:   1366.9     for time: 1.0000     to  1.200    
EVT   no.   13 value from time series:   2050.3     for time: 1.0000     to  1.200    
EVT   no.   14 value from time series:   2733.8     for time: 1.0000     to  1.200    
EVT   no.   20 value from time series:   341.72     for time: 1.0000     to  1.200    
WEL   no.    1 value from time series:  -30000.     for time: 1.0000     to  1.200    
WEL   no.    2 value from time series:  -2200.0     for time: 1.0000     to  1.200    
RIV   no.    1 value from time series:   101.20     for time: 1.0000     to  1.200    
RIV   no.    2 value from time series:   101.20     for time: 1.0000     to  1.200    
RIV   no.    3 value from time series:   101.20     for time: 1.0000     to  1.200    
RIV   no.    4 value from time series:   101.20     for time: 1.0000     to  1.200    
RIV   no.    5 value from time series:   101.20     for time: 1.0000     to  1.200    
RIV   no.    6 value from time series:   101.20     for time: 1.0000     to  1.200    
RIV   no.    7 value from time series:   101.20     for time: 1.0000     to  1.200    
RIV   no.    8 value from time series:   101.20     for time: 1.0000     to  1.200    
RIV   no.    9 value from time series:   101.20     for time: 1.0000     to  1.200    
RIV   no.   10 value from time series:   101.20     for time: 1.0000     to  1.200    
EVT   no.    1 value from time series:   683.44     for time: 1.0000     to  1.200    
EVT   no.    2 value from time series:   1366.9     for time: 1.0000     to  1.200    
EVT   no.    3 value from time series:   2050.3     for time: 1.0000     to  1.200    
EVT   no.    4 value from time series:   2733.8     for time: 1.0000     to  1.200    
EVT   no.   10 value from time series:   341.72     for time: 1.0000     to  1.200    
EVT   no.   11 value from time series:   683.44     for time: 1.0000     to  1.200    
EVT   no.   12 value from time series:   1366.9     for time: 1.0000     to  1.200    
EVT   no.   13 value from time series:   2050.3     for time: 1.0000     to  1.200    
EVT   no.   14 value from time series:   2733.8     for time: 1.0000     to  1.200    
EVT   no.   20 value from time series:   341.72     for time: 1.0000     to  1.200    

 OUTPUT CONTROL FOR STRESS PERIOD    2   TIME STEP    1
    PRINT BUDGET
    PRINT HEAD
    PRINT HEAD FOR ALL LAYERS
    SAVE BUDGET
    SAVE HEAD
    SAVE HEAD FOR ALL LAYERS
 UBDSV1 SAVING      STORAGE(SS) ON UNIT   1017 AT TIME STEP      1, STRESS PERIOD      2
 UBDSV1 SAVING      STORAGE(SY) ON UNIT   1017 AT TIME STEP      1, STRESS PERIOD      2
 UBDSV1 SAVING FLOW RIGHT FACE  ON UNIT   1017 AT TIME STEP      1, STRESS PERIOD      2
 UBDSV1 SAVING FLOW FRONT FACE  ON UNIT   1017 AT TIME STEP      1, STRESS PERIOD      2
 UBDSV1 SAVING FLOW LOWER FACE  ON UNIT   1017 AT TIME STEP      1, STRESS PERIOD      2
 UBDSV4 SAVING WELLS NEAR RIVER ON UNIT   1017 AT TIME STEP      1, STRESS PERIOD      2

 WELLS NEAR RIVER   PERIOD  2   STEP  1
 BOUNDARY      1   LAYER   2   ROW     3   COL     4   RATE    -30000.0      WELL_1
 BOUNDARY      2   LAYER   2   ROW     8   COL     4   RATE    -2200.00      WELL_2
 BOUNDARY      3   LAYER   2   ROW     4   COL     6   RATE   -10.00000    
 BOUNDARY      4   LAYER   2   ROW     5   COL     8   RATE    -20.0000    
 BOUNDARY      5   LAYER   2   ROW     2   COL     9   RATE    -40.0000    
 UBDSV4 SAVING RIVER            ON UNIT   1017 AT TIME STEP      1, STRESS PERIOD      2

 RIVER              PERIOD  2   STEP  1
 BOUNDARY      1   LAYER   1   ROW     1   COL    15   RATE     1401.03    
 BOUNDARY      2   LAYER   1   ROW     2   COL    15   RATE     1418.91      RIV2
 BOUNDARY      3   LAYER   1   ROW     3   COL    15   RATE     1445.77      RIV3
 BOUNDARY      4   LAYER   1   ROW     4   COL    15   RATE     1473.73    
 BOUNDARY      5   LAYER   1   ROW     5   COL    15   RATE     1495.39    
 BOUNDARY      6   LAYER   1   ROW     6   COL    15   RATE     1496.02    
 BOUNDARY      7   LAYER   1   ROW     7   COL    15   RATE     1475.17      RIVX
 BOUNDARY      8   LAYER   1   ROW     8   COL    15   RATE     1444.18      RIVX
 BOUNDARY      9   LAYER   1   ROW     9   COL    15   RATE     1411.80      RIVX
 BOUNDARY     10   LAYER   1   ROW    10   COL    15   RATE     1388.72    

 GHB LAKES          PERIOD  2   STEP  1
 BOUNDARY      1   LAYER   1   ROW     3   COL     1   RATE    -7783.29    
 BOUNDARY      2   LAYER   1   ROW     7   COL     1   RATE     4438.90      GHB2_UPPER
 BOUNDARY      3   LAYER   1   ROW     7   COL     1   RATE    -10960.6      GHB2_LOWER
 UBDSV4 SAVING RECHARGE         ON UNIT   1017 AT TIME STEP      1, STRESS PERIOD      2

 RECHARGE           PERIOD  2   STEP  1
 BOUNDARY      2   LAYER   1   ROW     1   COL     2   RATE     750.000    
 BOUNDARY      3   LAYER   1   ROW     1   COL     3   RATE     750.000    
 BOUNDARY      4   LAYER   1   ROW     1   COL     4   RATE     750.000    
 BOUNDARY      5   LAYER   1   ROW     1   COL     5   RATE     750.000    
 BOUNDARY      6   LAYER   1   ROW     1   COL     6   RATE     750.000    
 BOUNDARY      7   LAYER   1   ROW     1   COL     7   RATE     750.000    
 BOUNDARY      8   LAYER   1   ROW     1   COL     8   RATE     750.000    
 BOUNDARY      9   LAYER   1   ROW     1   COL     9   RATE     750.000    
 BOUNDARY     10   LAYER   1   ROW     1   COL    10   RATE     750.000    
 BOUNDARY     11   LAYER   1   ROW     1   COL    11   RATE     750.000    
 BOUNDARY     12   LAYER   1   ROW     1   COL    12   RATE     750.000    
 BOUNDARY     13   LAYER   1   ROW     1   COL    13   RATE     750.000    
 BOUNDARY     14   LAYER   1   ROW     1   COL    14   RATE     750.000    
 BOUNDARY     15   LAYER   1   ROW     1   COL    15   RATE     750.000    
 BOUNDARY     16   LAYER   1   ROW     2   COL     1   RATE     750.000    
 BOUNDARY     17   LAYER   1   ROW     2   COL     2   RATE     750.000    
 BOUNDARY     18   LAYER   1   ROW     2   COL     3   RATE     750.000    
 BOUNDARY     19   LAYER   1   ROW     2   COL     4   RATE     750.000    
 BOUNDARY     20   LAYER   1   ROW     2   COL     5   RATE     750.000    
 BOUNDARY     21   LAYER   1   ROW     2   COL     6   RATE     750.000    
 BOUNDARY     22   LAYER   1   ROW     2   COL     7   RATE     750.000    
 BOUNDARY     23   LAYER   1   ROW     2   COL     8   RATE     750.000    
 BOUNDARY     24   LAYER   1   ROW     2   COL     9   RATE     750.000    
 BOUNDARY     25   LAYER   1   ROW     2   COL    10   RATE     750.000    
 BOUNDARY     26   LAYER   1   ROW     2   COL    11   RATE     750.000    
 BOUNDARY     27   LAYER   1   ROW     2   COL    12   RATE     750.000    
 BOUNDARY     28   LAYER   1   ROW     2   COL    13   RATE     750.000    
 BOUNDARY     29   LAYER   1   ROW     2   COL    14   RATE     750.000    
 BOUNDARY     30   LAYER   1   ROW     2   COL    15   RATE     750.000    
 BOUNDARY     31   LAYER   1   ROW     3   COL     1   RATE     750.000    
 BOUNDARY     32   LAYER   1   ROW     3   COL     2   RATE     750.000    
 BOUNDARY     33   LAYER   1   ROW     3   COL     3   RATE     750.000    
 BOUNDARY     34   LAYER   1   ROW     3   COL     4   RATE     750.000    
 BOUNDARY     35   LAYER   1   ROW     3   COL     5   RATE     750.000    
 BOUNDARY     36   LAYER   1   ROW     3   COL     6   RATE     750.000    
 BOUNDARY     37   LAYER   1   ROW     3   COL     7   RATE     750.000    
 BOUNDARY     38   LAYER   1   ROW     3   COL     8   RATE     750.000    
 BOUNDARY     39   LAYER   1   ROW     3   COL     9   RATE     750.000    
 BOUNDARY     40   LAYER   1   ROW     3   COL    10   RATE     750.000    
 BOUNDARY     41   LAYER   1   ROW     3   COL    11   RATE     750.000    
 BOUNDARY     42   LAYER   1   ROW     3   COL    12   RATE     750.000    
 BOUNDARY     43   LAYER   1   ROW     3   COL    13   RATE     750.000    
 BOUNDARY     44   LAYER   1   ROW     3   COL    14   RATE     750.000    
 BOUNDARY     45   LAYER   1   ROW     3   COL    15   RATE     750.000    
 BOUNDARY     47   LAYER   1   ROW     4   COL     2   RATE     750.000    
 BOUNDARY     48   LAYER   1   ROW     4   COL     3   RATE     750.000    
 BOUNDARY     49   LAYER   1   ROW     4   COL     4   RATE     750.000    
 BOUNDARY     50   LAYER   1   ROW     4   COL     5   RATE     750.000    
 BOUNDARY     51   LAYER   1   ROW     4   COL     6   RATE     750.000    
 BOUNDARY     52   LAYER   1   ROW     4   COL     7   RATE     750.000    
 BOUNDARY     53   LAYER   1   ROW     4   COL     8   RATE     750.000    
 BOUNDARY     54   LAYER   1   ROW     4   COL     9   RATE     750.000    
 BOUNDARY     55   LAYER   1   ROW     4   COL    10   RATE     750.000    
 BOUNDARY     56   LAYER   1   ROW     4   COL    11   RATE     750.000    
 BOUNDARY     57   LAYER   1   ROW     4   COL    12   RATE     750.000    
 BOUNDARY     58   LAYER   1   ROW     4   COL    13   RATE     750.000    
 BOUNDARY     59   LAYER   1   ROW     4   COL    14   RATE     750.000    
 BOUNDARY     60   LAYER   1   ROW     4   COL    15   RATE     750.000    
 BOUNDARY     62   LAYER   1   ROW     5   COL     2   RATE     750.000    
 BOUNDARY     63   LAYER   1   ROW     5   COL     3   RATE     750.000    
 BOUNDARY     64   LAYER   1   ROW     5   COL     4   RATE     750.000    
 BOUNDARY     65   LAYER   1   ROW     5   COL     5   RATE     750.000    
 BOUNDARY     66   LAYER   1   ROW     5   COL     6   RATE     750.000    
 BOUNDARY     67   LAYER   1   ROW     5   COL     7   RATE     750.000    
 BOUNDARY     68   LAYER   1   ROW     5   COL     8   RATE     750.000    
 BOUNDARY     69   LAYER   1   ROW     5   COL     9   RATE     750.000    
 BOUNDARY     70   LAYER   1   ROW     5   COL    10   RATE     750.000    
 BOUNDARY     71   LAYER   1   ROW     5   COL    11   RATE     750.000    
 BOUNDARY     72   LAYER   1   ROW     5   COL    12   RATE     750.000    
 BOUNDARY     73   LAYER   1   ROW     5   COL    13   RATE     750.000    
 BOUNDARY     74   LAYER   1   ROW     5   COL    14   RATE     750.000    
 BOUNDARY     75   LAYER   1   ROW     5   COL    15   RATE     750.000    
 BOUNDARY     77   LAYER   1   ROW     6   COL     2   RATE     750.000    
 BOUNDARY     78   LAYER   1   ROW     6   COL     3   RATE     750.000    
 BOUNDARY     79   LAYER   1   ROW     6   COL     4   RATE     750.000    
 BOUNDARY     80   LAYER   1   ROW     6   COL     5   RATE     750.000    
 BOUNDARY     81   LAYER   1   ROW     6   COL     6   RATE     750.000    
 BOUNDARY     82   LAYER   1   ROW     6   COL     7   RATE     750.000    
 BOUNDARY     83   LAYER   1   ROW     6   COL     8   RATE     750.000    
 BOUNDARY     84   LAYER   1   ROW     6   COL     9   RATE     750.000    
 BOUNDARY     85   LAYER   1   ROW     6   COL    10   RATE     750.000    
 BOUNDARY     86   LAYER   1   ROW     6   COL    11   RATE     750.000    
 BOUNDARY     87   LAYER   1   ROW     6   COL    12   RATE     750.000    
 BOUNDARY     88   LAYER   1   ROW     6   COL    13   RATE     750.000    
 BOUNDARY     89   LAYER   1   ROW     6   COL    14   RATE     750.000    
 BOUNDARY     90   LAYER   1   ROW     6   COL    15   RATE     750.000    
 BOUNDARY     91   LAYER   1   ROW     7   COL     1   RATE     750.000    
 BOUNDARY     92   LAYER   1   ROW     7   COL     2   RATE     750.000    
 BOUNDARY     93   LAYER   1   ROW     7   COL     3   RATE     750.000    
 BOUNDARY     94   LAYER   1   ROW     7   COL     4   RATE     750.000    
 BOUNDARY     95   LAYER   1   ROW     7   COL     5   RATE     750.000    
 BOUNDARY     96   LAYER   1   ROW     7   COL     6   RATE     750.000    
 BOUNDARY     97   LAYER   1   ROW     7   COL     7   RATE     750.000    
 BOUNDARY     98   LAYER   1   ROW     7   COL     8   RATE     750.000    
 BOUNDARY     99   LAYER   1   ROW     7   COL     9   RATE     750.000    
 BOUNDARY    100   LAYER   1   ROW     7   COL    10   RATE     750.000    
 BOUNDARY    101   LAYER   1   ROW     7   COL    11   RATE     750.000    
 BOUNDARY    102   LAYER   1   ROW     7   COL    12   RATE     750.000    
 BOUNDARY    103   LAYER   1   ROW     7   COL    13   RATE     750.000    
 BOUNDARY    104   LAYER   1   ROW     7   COL    14   RATE     750.000    
 BOUNDARY    105   LAYER   1   ROW     7   COL    15   RATE     750.000    
 BOUNDARY    106   LAYER   1   ROW     8   COL     1   RATE     750.000    
 BOUNDARY    107   LAYER   1   ROW     8   COL     2   RATE     750.000    
 BOUNDARY    108   LAYER   1   ROW     8   COL     3   RATE     750.000    
 BOUNDARY    109   LAYER   1   ROW     8   COL     4   RATE     750.000    
 BOUNDARY    110   LAYER   1   ROW     8   COL     5   RATE     750.000    
 BOUNDARY    111   LAYER   1   ROW     8   COL     6   RATE     750.000    
 BOUNDARY    112   LAYER   1   ROW     8   COL     7   RATE     750.000    
 BOUNDARY    113   LAYER   1   ROW     8   COL     8   RATE     750.000    
 BOUNDARY    114   LAYER   1   ROW     8   COL     9   RATE     750.000    
 BOUNDARY    115   LAYER   1   ROW     8   COL    10   RATE     750.000    
 BOUNDARY    116   LAYER   1   ROW     8   COL    11   RATE     750.000    
 BOUNDARY    117   LAYER   1   ROW     8   COL    12   RATE     750.000    
 BOUNDARY    118   LAYER   1   ROW     8   COL    13   RATE     750.000    
 BOUNDARY    119   LAYER   1   ROW     8   COL    14   RATE     750.000    
 BOUNDARY    120   LAYER   1   ROW     8   COL    15   RATE     750.000    
 BOUNDARY    121   LAYER   1   ROW     9   COL     1   RATE     750.000    
 BOUNDARY    122   LAYER   1   ROW     9   COL     2   RATE     750.000    
 BOUNDARY    123   LAYER   1   ROW     9   COL     3   RATE     750.000    
 BOUNDARY    124   LAYER   1   ROW     9   COL     4   RATE     750.000    
 BOUNDARY    125   LAYER   1   ROW     9   COL     5   RATE     750.000    
 BOUNDARY    126   LAYER   1   ROW     9   COL     6   RATE     750.000    
 BOUNDARY    127   LAYER   1   ROW     9   COL     7   RATE     750.000    
 BOUNDARY    128   LAYER   1   ROW     9   COL     8   RATE     750.000    
 BOUNDARY    129   LAYER   1   ROW     9   COL     9   RATE     750.000    
 BOUNDARY    130   LAYER   1   ROW     9   COL    10   RATE     750.000    
 BOUNDARY    131   LAYER   1   ROW     9   COL    11   RATE     750.000    
 BOUNDARY    132   LAYER   1   ROW     9   COL    12   RATE     750.000    
 BOUNDARY    133   LAYER   1   ROW     9   COL    13   RATE     750.000    
 BOUNDARY    134   LAYER   1   ROW     9   COL    14   RATE     750.000    
 BOUNDARY    135   LAYER   1   ROW     9   COL    15   RATE     750.000    
 BOUNDARY    137   LAYER   1   ROW    10   COL     2   RATE     750.000    
 BOUNDARY    138   LAYER   1   ROW    10   COL     3   RATE     750.000    
 BOUNDARY    139   LAYER   1   ROW    10   COL     4   RATE     750.000    
 BOUNDARY    140   LAYER   1   ROW    10   COL     5   RATE     750.000    
 BOUNDARY    141   LAYER   1   ROW    10   COL     6   RATE     750.000    
 BOUNDARY    142   LAYER   1   ROW    10   COL     7   RATE     750.000    
 BOUNDARY    143   LAYER   1   ROW    10   COL     8   RATE     750.000    
 BOUNDARY    144   LAYER   1   ROW    10   COL     9   RATE     750.000    
 BOUNDARY    145   LAYER   1   ROW    10   COL    10   RATE     750.000    
 BOUNDARY    146   LAYER   1   ROW    10   COL    11   RATE     750.000    
 BOUNDARY    147   LAYER   1   ROW    10   COL    12   RATE     750.000    
 BOUNDARY    148   LAYER   1   ROW    10   COL    13   RATE     750.000    
 BOUNDARY    149   LAYER   1   ROW    10   COL    14   RATE     750.000    
 BOUNDARY    150   LAYER   1   ROW    10   COL    15   RATE     750.000    
 UBDSV4 SAVING ET SEGS          ON UNIT   1017 AT TIME STEP      1, STRESS PERIOD      2

 ET SEGS            PERIOD  2   STEP  1
 BOUNDARY      1   LAYER   1   ROW     1   COL    13   RATE    -51.9681      ET-1
 BOUNDARY      2   LAYER   1   ROW     2   COL    13   RATE    -98.2070      ET-2
 BOUNDARY      3   LAYER   1   ROW     3   COL    13   RATE    -135.597      ET-3
 BOUNDARY      4   LAYER   1   ROW     4   COL    13   RATE    -164.671      ET-4
 BOUNDARY      5   LAYER   1   ROW     5   COL    13   RATE    -273.161      ET-5
 BOUNDARY      6   LAYER   1   ROW     6   COL    13   RATE    -272.299      ET-6
 BOUNDARY      7   LAYER   1   ROW     7   COL    13   RATE    -208.320      ET-7
 BOUNDARY      8   LAYER   1   ROW     8   COL    13   RATE    -165.275      ET-8
 BOUNDARY      9   LAYER   1   ROW     9   COL    13   RATE    -109.693      ET-9
 BOUNDARY     10   LAYER   1   ROW    10   COL    13   RATE    -26.9202      ET-10
 BOUNDARY     11   LAYER   1   ROW     1   COL    12   RATE    -79.0214      ET-1
 BOUNDARY     12   LAYER   1   ROW     2   COL    12   RATE    -136.894      ET-2
 BOUNDARY     13   LAYER   1   ROW     3   COL    12   RATE    -191.858      ET-3
 BOUNDARY     14   LAYER   1   ROW     4   COL    12   RATE    -237.369      ET-4
 BOUNDARY     15   LAYER   1   ROW     5   COL    12   RATE    -400.915      ET-5
 BOUNDARY     16   LAYER   1   ROW     6   COL    12   RATE    -400.020      ET-6
 BOUNDARY     17   LAYER   1   ROW     7   COL    12   RATE    -301.022      ET-7
 BOUNDARY     18   LAYER   1   ROW     8   COL    12   RATE    -233.950      ET-8
 BOUNDARY     19   LAYER   1   ROW     9   COL    12   RATE    -157.472      ET-9
 BOUNDARY     20   LAYER   1   ROW    10   COL    12   RATE    -43.1817      ET-10
 UBDSV4 SAVING CONSTANT HEADS   ON UNIT   1017 AT TIME STEP      1, STRESS PERIOD      2

 CONSTANT HEADS     PERIOD  2   STEP  1
 BOUNDARY      1   LAYER   1   ROW     1   COL     1   RATE     2652.43      CHD-1
 BOUNDARY      2   LAYER   1   ROW     4   COL     1   RATE     4714.79    
 BOUNDARY      3   LAYER   1   ROW     5   COL     1   RATE     837.228      CHD_GP
 BOUNDARY      4   LAYER   1   ROW     6   COL     1   RATE     4338.32      CHD_GP
 BOUNDARY      5   LAYER   1   ROW    10   COL     1   RATE     1806.65      CHD-10
1
  HEAD             IN LAYER   1 AT END OF TIME STEP   1 IN STRESS PERIOD    2
  ---------------------------------------------------------------------------

           1       2       3       4       5       6       7       8       9      10      11      12      13      14      15
 ...........................................................................................................................
   1   120.00  116.82  115.59  114.89  114.22  113.44  112.50  111.39  110.11  108.65  107.01  105.23  103.80  102.55  101.06
   2   113.69  114.67  114.92  114.69  114.16  113.42  112.49  111.38  110.08  108.59  106.90  105.00  103.59  102.47  101.06
   3   105.18  112.98  114.56  114.61  114.15  113.42  112.48  111.36  110.04  108.50  106.73  104.68  103.31  102.34  101.06
   4   120.00  116.51  115.49  114.88  114.23  113.44  112.49  111.34  109.99  108.41  106.55  104.34  103.01  102.21  101.05
   5   120.00  117.27  115.87  115.03  114.28  113.46  112.49  111.33  109.96  108.35  106.41  104.01  102.73  102.10  101.05
   6   120.00  116.59  115.54  114.91  114.25  113.46  112.50  111.34  109.97  108.35  106.41  104.00  102.72  102.10  101.05
   7   106.83  113.26  114.62  114.65  114.19  113.45  112.51  111.37  110.01  108.42  106.55  104.30  102.98  102.20  101.05
   8   112.73  114.25  114.81  114.71  114.22  113.48  112.54  111.41  110.08  108.54  106.75  104.68  103.31  102.35  101.06
   9   116.32  115.90  115.48  114.98  114.33  113.54  112.58  111.45  110.14  108.65  106.96  105.07  103.66  102.50  101.06
  10   120.00  117.38  116.07  115.21  114.43  113.59  112.61  111.48  110.18  108.72  107.11  105.40  103.94  102.61  101.06
1
  HEAD             IN LAYER   2 AT END OF TIME STEP   1 IN STRESS PERIOD    2
  ---------------------------------------------------------------------------

           1       2       3       4       5       6       7       8       9      10      11      12      13      14      15
 ...........................................................................................................................
   1   116.06  115.51  114.99  114.39  113.85  113.08  112.15  111.05  109.78  108.39  106.90  105.42  104.13  103.10  102.39
   2   114.65  114.80  114.56  112.50  113.66  113.06  112.14  111.03  109.71  108.34  106.84  105.33  104.05  103.05  102.37
   3   113.56  114.33  112.72   76.45  111.93  112.99  112.13  111.02  109.72  108.28  106.73  105.19  103.92  102.96  102.32
   4   115.83  115.38  114.82  112.61  113.71  113.07  112.13  111.00  109.69  108.22  106.63  105.05  103.79  102.87  102.27
   5   116.44  115.80  115.17  114.50  113.90  113.10  112.14  110.97  109.67  108.18  106.56  104.94  103.69  102.82  102.24
   6   115.90  115.44  115.01  114.51  113.89  113.11  112.15  111.00  109.68  108.18  106.56  104.94  103.69  102.82  102.24
   7   113.78  114.49  114.64  114.26  113.85  113.11  112.16  111.03  109.71  108.24  106.64  105.05  103.79  102.88  102.28
   8   114.42  114.71  114.60  111.67  113.76  113.13  112.19  111.06  109.77  108.32  106.76  105.22  103.94  102.98  102.33
   9   115.62  115.43  115.09  114.48  113.97  113.18  112.23  111.10  109.82  108.40  106.89  105.39  104.10  103.08  102.38
  10   116.67  116.06  115.42  114.76  114.05  113.22  112.25  111.13  109.85  108.45  106.97  105.50  104.20  103.14  102.42

 HEAD WILL BE SAVED ON UNIT 1018 AT END OF TIME STEP    1, STRESS PERIOD    2
1
  VOLUME BUDGET FOR ENTIRE MODEL AT END OF TIME STEP    1, STRESS PERIOD   2
  ------------------------------------------------------------------------------

     CUMULATIVE VOLUME      L**3       RATES FOR THIS TIME STEP      L**3/T
     ------------------                 ------------------------

           IN:                                      IN:
           ---                                      ---
         STORAGE(SS) =        6201.3334           STORAGE(SS) =       31006.6668
         STORAGE(SY) =          48.4134           STORAGE(SY) =         242.0668
    WELLS NEAR RIVER =           0.0000      WELLS NEAR RIVER =           0.0000
               RIVER =        2890.1405                 RIVER =       14450.7023
           GHB LAKES =        5327.6800             GHB LAKES =        4438.9009
            RECHARGE =       29000.0000              RECHARGE =      108750.0000
             ET SEGS =           0.0000               ET SEGS =           0.0000
      CONSTANT HEADS =       17231.9518        CONSTANT HEADS =       14349.4301

            TOTAL IN =       60699.5190              TOTAL IN =      173237.7669

          OUT:                                     OUT:
          ----                                     ----
         STORAGE(SS) =           2.5750           STORAGE(SS) =          12.8748
         STORAGE(SY) =       23704.6360           STORAGE(SY) =      118523.1802
    WELLS NEAR RIVER =        6454.0000      WELLS NEAR RIVER =       32270.0000
               RIVER =        3514.3129                 RIVER =           0.0000
           GHB LAKES =       22427.8342             GHB LAKES =       18743.8980
            RECHARGE =           0.0000              RECHARGE =           0.0000
             ET SEGS =        4596.1663               ET SEGS =        3687.8140
      CONSTANT HEADS =           0.0000        CONSTANT HEADS =           0.0000

           TOTAL OUT =       60699.5244             TOTAL OUT =      173237.7669

            IN - OUT =      -5.4005E-03              IN - OUT =      -2.1799E-08

 PERCENT DISCREPANCY =          -0.00     PERCENT DISCREPANCY =          -0.00






         TIME SUMMARY AT END OF TIME STEP    1 IN STRESS PERIOD    2
                    SECONDS     MINUTES      HOURS       DAYS        YEARS
                    -----------------------------------------------------------
   TIME STEP LENGTH  17280.      288.00      4.8000     0.20000     5.47570E-04
 STRESS PERIOD TIME  17280.      288.00      4.8000     0.20000     5.47570E-04
         TOTAL TIME 1.03680E+05  1728.0      28.800      1.2000     3.28542E-03
WEL   no.    1 value from time series:  -30000.     for time:  1.200     to  1.400    
WEL   no.    2 value from time series:  -2600.0     for time:  1.200     to  1.400    
RIV   no.    1 value from time series:   101.60     for time:  1.200     to  1.400    
RIV   no.    2 value from time series:   101.60     for time:  1.200     to  1.400    
RIV   no.    3 value from time series:   101.60     for time:  1.200     to  1.400    
RIV   no.    4 value from time series:   101.60     for time:  1.200     to  1.400    
RIV   no.    5 value from time series:   101.60     for time:  1.200     to  1.400    
RIV   no.    6 value from time series:   101.60     for time:  1.200     to  1.400    
RIV   no.    7 value from time series:   101.60     for time:  1.200     to  1.400    
RIV   no.    8 value from time series:   101.60     for time:  1.200     to  1.400    
RIV   no.    9 value from time series:   101.60     for time:  1.200     to  1.400    
RIV   no.   10 value from time series:   101.60     for time:  1.200     to  1.400    
EVT   no.    1 value from time series:   700.31     for time:  1.200     to  1.400    
EVT   no.    2 value from time series:   1400.6     for time:  1.200     to  1.400    
EVT   no.    3 value from time series:   2100.9     for time:  1.200     to  1.400    
EVT   no.    4 value from time series:   2801.2     for time:  1.200     to  1.400    
EVT   no.   10 value from time series:   350.16     for time:  1.200     to  1.400    
EVT   no.   11 value from time series:   700.31     for time:  1.200     to  1.400    
EVT   no.   12 value from time series:   1400.6     for time:  1.200     to  1.400    
EVT   no.   13 value from time series:   2100.9     for time:  1.200     to  1.400    
EVT   no.   14 value from time series:   2801.2     for time:  1.200     to  1.400    
EVT   no.   20 value from time series:   350.16     for time:  1.200     to  1.400    
WEL   no.    1 value from time series:  -30000.     for time:  1.200     to  1.400    
WEL   no.    2 value from time series:  -2600.0     for time:  1.200     to  1.400    
RIV   no.    1 value from time series:   101.60     for time:  1.200     to  1.400    
RIV   no.    2 value from time series:   101.60     for time:  1.200     to  1.400    
RIV   no.    3 value from time series:   101.60     for time:  1.200     to  1.400    
RIV   no.    4 value from time series:   101.60     for time:  1.200     to  1.400    
RIV   no.    5 value from time series:   101.60     for time:  1.200     to  1.400    
RIV   no.    6 value from time series:   101.60     for time:  1.200     to  1.400    
RIV   no.    7 value from time series:   101.60     for time:  1.200     to  1.400    
RIV   no.    8 value from time series:   101.60     for time:  1.200     to  1.400    
RIV   no.    9 value from time series:   101.60     for time:  1.200     to  1.400    
RIV   no.   10 value from time series:   101.60     for time:  1.200     to  1.400    
EVT   no.    1 value from time series:   700.31     for time:  1.200     to  1.400    
EVT   no.    2 value from time series:   1400.6     for time:  1.200     to  1.400    
EVT   no.    3 value from time series:   2100.9     for time:  1.200     to  1.400    
EVT   no.    4 value from time series:   2801.2     for time:  1.200     to  1.400    
EVT   no.   10 value from time series:   350.16     for time:  1.200     to  1.400    
EVT   no.   11 value from time series:   700.31     for time:  1.200     to  1.400    
EVT   no.   12 value from time series:   1400.6     for time:  1.200     to  1.400    
EVT   no.   13 value from time series:   2100.9     for time:  1.200     to  1.400    
EVT   no.   14 value from time series:   2801.2     for time:  1.200     to  1.400    
EVT   no.   20 value from time series:   350.16     for time:  1.200     to  1.400    

 OUTPUT CONTROL FOR STRESS PERIOD    2   TIME STEP    2
    SAVE BUDGET
    SAVE HEAD
    SAVE HEAD FOR ALL LAYERS
 UBDSV1 SAVING      STORAGE(SS) ON UNIT   1017 AT TIME STEP      2, STRESS PERIOD      2
 UBDSV1 SAVING      STORAGE(SY) ON UNIT   1017 AT TIME STEP      2, STRESS PERIOD      2
 UBDSV1 SAVING FLOW RIGHT FACE  ON UNIT   1017 AT TIME STEP      2, STRESS PERIOD      2
 UBDSV1 SAVING FLOW FRONT FACE  ON UNIT   1017 AT TIME STEP      2, STRESS PERIOD      2
 UBDSV1 SAVING FLOW LOWER FACE  ON UNIT   1017 AT TIME STEP      2, STRESS PERIOD      2
 UBDSV4 SAVING WELLS NEAR RIVER ON UNIT   1017 AT TIME STEP      2, STRESS PERIOD      2

 WELLS NEAR RIVER   PERIOD  2   STEP  2
 BOUNDARY      1   LAYER   2   ROW     3   COL     4   RATE    -30000.0      WELL_1
 BOUNDARY      2   LAYER   2   ROW     8   COL     4   RATE    -2600.00      WELL_2
 BOUNDARY      3   LAYER   2   ROW     4   COL     6   RATE   -10.00000    
 BOUNDARY      4   LAYER   2   ROW     5   COL     8   RATE    -20.0000    
 BOUNDARY      5   LAYER   2   ROW     2   COL     9   RATE    -40.0000    
 UBDSV4 SAVING RIVER            ON UNIT   1017 AT TIME STEP      2, STRESS PERIOD      2

 RIVER              PERIOD  2   STEP  2
 BOUNDARY      1   LAYER   1   ROW     1   COL    15   RATE     4911.74    
 BOUNDARY      2   LAYER   1   ROW     2   COL    15   RATE     4929.63      RIV2
 BOUNDARY      3   LAYER   1   ROW     3   COL    15   RATE     4956.48      RIV3
 BOUNDARY      4   LAYER   1   ROW     4   COL    15   RATE     4984.44    
 BOUNDARY      5   LAYER   1   ROW     5   COL    15   RATE     5006.10    
 BOUNDARY      6   LAYER   1   ROW     6   COL    15   RATE     5006.73    
 BOUNDARY      7   LAYER   1   ROW     7   COL    15   RATE     4985.88      RIVX
 BOUNDARY      8   LAYER   1   ROW     8   COL    15   RATE     4954.89      RIVX
 BOUNDARY      9   LAYER   1   ROW     9   COL    15   RATE     4922.51      RIVX
 BOUNDARY     10   LAYER   1   ROW    10   COL    15   RATE     4899.43    

 GHB LAKES          PERIOD  2   STEP  2
 BOUNDARY      1   LAYER   1   ROW     3   COL     1   RATE    -7791.38    
 BOUNDARY      2   LAYER   1   ROW     7   COL     1   RATE     4431.68      GHB2_UPPER
 BOUNDARY      3   LAYER   1   ROW     7   COL     1   RATE    -10963.2      GHB2_LOWER
 UBDSV4 SAVING RECHARGE         ON UNIT   1017 AT TIME STEP      2, STRESS PERIOD      2

 RECHARGE           PERIOD  2   STEP  2
 BOUNDARY      2   LAYER   1   ROW     1   COL     2   RATE     750.000    
 BOUNDARY      3   LAYER   1   ROW     1   COL     3   RATE     750.000    
 BOUNDARY      4   LAYER   1   ROW     1   COL     4   RATE     750.000    
 BOUNDARY      5   LAYER   1   ROW     1   COL     5   RATE     750.000    
 BOUNDARY      6   LAYER   1   ROW     1   COL     6   RATE     750.000    
 BOUNDARY      7   LAYER   1   ROW     1   COL     7   RATE     750.000    
 BOUNDARY      8   LAYER   1   ROW     1   COL     8   RATE     750.000    
 BOUNDARY      9   LAYER   1   ROW     1   COL     9   RATE     750.000    
 BOUNDARY     10   LAYER   1   ROW     1   COL    10   RATE     750.000    
 BOUNDARY     11   LAYER   1   ROW     1   COL    11   RATE     750.000    
 BOUNDARY     12   LAYER   1   ROW     1   COL    12   RATE     750.000    
 BOUNDARY     13   LAYER   1   ROW     1   COL    13   RATE     750.000    
 BOUNDARY     14   LAYER   1   ROW     1   COL    14   RATE     750.000    
 BOUNDARY     15   LAYER   1   ROW     1   COL    15   RATE     750.000    
 BOUNDARY     16   LAYER   1   ROW     2   COL     1   RATE     750.000    
 BOUNDARY     17   LAYER   1   ROW     2   COL     2   RATE     750.000    
 BOUNDARY     18   LAYER   1   ROW     2   COL     3   RATE     750.000    
 BOUNDARY     19   LAYER   1   ROW     2   COL     4   RATE     750.000    
 BOUNDARY     20   LAYER   1   ROW     2   COL     5   RATE     750.000    
 BOUNDARY     21   LAYER   1   ROW     2   COL     6   RATE     750.000    
 BOUNDARY     22   LAYER   1   ROW     2   COL     7   RATE     750.000    
 BOUNDARY     23   LAYER   1   ROW     2   COL     8   RATE     750.000    
 BOUNDARY     24   LAYER   1   ROW     2   COL     9   RATE     750.000    
 BOUNDARY     25   LAYER   1   ROW     2   COL    10   RATE     750.000    
 BOUNDARY     26   LAYER   1   ROW     2   COL    11   RATE     750.000    
 BOUNDARY     27   LAYER   1   ROW     2   COL    12   RATE     750.000    
 BOUNDARY     28   LAYER   1   ROW     2   COL    13   RATE     750.000    
 BOUNDARY     29   LAYER   1   ROW     2   COL    14   RATE     750.000    
 BOUNDARY     30   LAYER   1   ROW     2   COL    15   RATE     750.000    
 BOUNDARY     31   LAYER   1   ROW     3   COL     1   RATE     750.000    
 BOUNDARY     32   LAYER   1   ROW     3   COL     2   RATE     750.000    
 BOUNDARY     33   LAYER   1   ROW     3   COL     3   RATE     750.000    
 BOUNDARY     34   LAYER   1   ROW     3   COL     4   RATE     750.000    
 BOUNDARY     35   LAYER   1   ROW     3   COL     5   RATE     750.000    
 BOUNDARY     36   LAYER   1   ROW     3   COL     6   RATE     750.000    
 BOUNDARY     37   LAYER   1   ROW     3   COL     7   RATE     750.000    
 BOUNDARY     38   LAYER   1   ROW     3   COL     8   RATE     750.000    
 BOUNDARY     39   LAYER   1   ROW     3   COL     9   RATE     750.000    
 BOUNDARY     40   LAYER   1   ROW     3   COL    10   RATE     750.000    
 BOUNDARY     41   LAYER   1   ROW     3   COL    11   RATE     750.000    
 BOUNDARY     42   LAYER   1   ROW     3   COL    12   RATE     750.000    
 BOUNDARY     43   LAYER   1   ROW     3   COL    13   RATE     750.000    
 BOUNDARY     44   LAYER   1   ROW     3   COL    14   RATE     750.000    
 BOUNDARY     45   LAYER   1   ROW     3   COL    15   RATE     750.000    
 BOUNDARY     47   LAYER   1   ROW     4   COL     2   RATE     750.000    
 BOUNDARY     48   LAYER   1   ROW     4   COL     3   RATE     750.000    
 BOUNDARY     49   LAYER   1   ROW     4   COL     4   RATE     750.000    
 BOUNDARY     50   LAYER   1   ROW     4   COL     5   RATE     750.000    
 BOUNDARY     51   LAYER   1   ROW     4   COL     6   RATE     750.000    
 BOUNDARY     52   LAYER   1   ROW     4   COL     7   RATE     750.000    
 BOUNDARY     53   LAYER   1   ROW     4   COL     8   RATE     750.000    
 BOUNDARY     54   LAYER   1   ROW     4   COL     9   RATE     750.000    
 BOUNDARY     55   LAYER   1   ROW     4   COL    10   RATE     750.000    
 BOUNDARY     56   LAYER   1   ROW     4   COL    11   RATE     750.000    
 BOUNDARY     57   LAYER   1   ROW     4   COL    12   RATE     750.000    
 BOUNDARY     58   LAYER   1   ROW     4   COL    13   RATE     750.000    
 BOUNDARY     59   LAYER   1   ROW     4   COL    14   RATE     750.000    
 BOUNDARY     60   LAYER   1   ROW     4   COL    15   RATE     750.000    
 BOUNDARY     62   LAYER   1   ROW     5   COL     2   RATE     750.000    
 BOUNDARY     63   LAYER   1   ROW     5   COL     3   RATE     750.000    
 BOUNDARY     64   LAYER   1   ROW     5   COL     4   RATE     750.000    
 BOUNDARY     65   LAYER   1   ROW     5   COL     5   RATE     750.000    
 BOUNDARY     66   LAYER   1   ROW     5   COL     6   RATE     750.000    
 BOUNDARY     67   LAYER   1   ROW     5   COL     7   RATE     750.000    
 BOUNDARY     68   LAYER   1   ROW     5   COL     8   RATE     750.000    
 BOUNDARY     69   LAYER   1   ROW     5   COL     9   RATE     750.000    
 BOUNDARY     70   LAYER   1   ROW     5   COL    10   RATE     750.000    
 BOUNDARY     71   LAYER   1   ROW     5   COL    11   RATE     750.000    
 BOUNDARY     72   LAYER   1   ROW     5   COL    12   RATE     750.000    
 BOUNDARY     73   LAYER   1   ROW     5   COL    13   RATE     750.000    
 BOUNDARY     74   LAYER   1   ROW     5   COL    14   RATE     750.000    
 BOUNDARY     75   LAYER   1   ROW     5   COL    15   RATE     750.000    
 BOUNDARY     77   LAYER   1   ROW     6   COL     2   RATE     750.000    
 BOUNDARY     78   LAYER   1   ROW     6   COL     3   RATE     750.000    
 BOUNDARY     79   LAYER   1   ROW     6   COL     4   RATE     750.000    
 BOUNDARY     80   LAYER   1   ROW     6   COL     5   RATE     750.000    
 BOUNDARY     81   LAYER   1   ROW     6   COL     6   RATE     750.000    
 BOUNDARY     82   LAYER   1   ROW     6   COL     7   RATE     750.000    
 BOUNDARY     83   LAYER   1   ROW     6   COL     8   RATE     750.000    
 BOUNDARY     84   LAYER   1   ROW     6   COL     9   RATE     750.000    
 BOUNDARY     85   LAYER   1   ROW     6   COL    10   RATE     750.000    
 BOUNDARY     86   LAYER   1   ROW     6   COL    11   RATE     750.000    
 BOUNDARY     87   LAYER   1   ROW     6   COL    12   RATE     750.000    
 BOUNDARY     88   LAYER   1   ROW     6   COL    13   RATE     750.000    
 BOUNDARY     89   LAYER   1   ROW     6   COL    14   RATE     750.000    
 BOUNDARY     90   LAYER   1   ROW     6   COL    15   RATE     750.000    
 BOUNDARY     91   LAYER   1   ROW     7   COL     1   RATE     750.000    
 BOUNDARY     92   LAYER   1   ROW     7   COL     2   RATE     750.000    
 BOUNDARY     93   LAYER   1   ROW     7   COL     3   RATE     750.000    
 BOUNDARY     94   LAYER   1   ROW     7   COL     4   RATE     750.000    
 BOUNDARY     95   LAYER   1   ROW     7   COL     5   RATE     750.000    
 BOUNDARY     96   LAYER   1   ROW     7   COL     6   RATE     750.000    
 BOUNDARY     97   LAYER   1   ROW     7   COL     7   RATE     750.000    
 BOUNDARY     98   LAYER   1   ROW     7   COL     8   RATE     750.000    
 BOUNDARY     99   LAYER   1   ROW     7   COL     9   RATE     750.000    
 BOUNDARY    100   LAYER   1   ROW     7   COL    10   RATE     750.000    
 BOUNDARY    101   LAYER   1   ROW     7   COL    11   RATE     750.000    
 BOUNDARY    102   LAYER   1   ROW     7   COL    12   RATE     750.000    
 BOUNDARY    103   LAYER   1   ROW     7   COL    13   RATE     750.000    
 BOUNDARY    104   LAYER   1   ROW     7   COL    14   RATE     750.000    
 BOUNDARY    105   LAYER   1   ROW     7   COL    15   RATE     750.000    
 BOUNDARY    106   LAYER   1   ROW     8   COL     1   RATE     750.000    
 BOUNDARY    107   LAYER   1   ROW     8   COL     2   RATE     750.000    
 BOUNDARY    108   LAYER   1   ROW     8   COL     3   RATE     750.000    
 BOUNDARY    109   LAYER   1   ROW     8   COL     4   RATE     750.000    
 BOUNDARY    110   LAYER   1   ROW     8   COL     5   RATE     750.000    
 BOUNDARY    111   LAYER   1   ROW     8   COL     6   RATE     750.000    
 BOUNDARY    112   LAYER   1   ROW     8   COL     7   RATE     750.000    
 BOUNDARY    113   LAYER   1   ROW     8   COL     8   RATE     750.000    
 BOUNDARY    114   LAYER   1   ROW     8   COL     9   RATE     750.000    
 BOUNDARY    115   LAYER   1   ROW     8   COL    10   RATE     750.000    
 BOUNDARY    116   LAYER   1   ROW     8   COL    11   RATE     750.000    
 BOUNDARY    117   LAYER   1   ROW     8   COL    12   RATE     750.000    
 BOUNDARY    118   LAYER   1   ROW     8   COL    13   RATE     750.000    
 BOUNDARY    119   LAYER   1   ROW     8   COL    14   RATE     750.000    
 BOUNDARY    120   LAYER   1   ROW     8   COL    15   RATE     750.000    
 BOUNDARY    121   LAYER   1   ROW     9   COL     1   RATE     750.000    
 BOUNDARY    122   LAYER   1   ROW     9   COL     2   RATE     750.000    
 BOUNDARY    123   LAYER   1   ROW     9   COL     3   RATE     750.000    
 BOUNDARY    124   LAYER   1   ROW     9   COL     4   RATE     750.000    
 BOUNDARY    125   LAYER   1   ROW     9   COL     5   RATE     750.000    
 BOUNDARY    126   LAYER   1   ROW     9   COL     6   RATE     750.000    
 BOUNDARY    127   LAYER   1   ROW     9   COL     7   RATE     750.000    
 BOUNDARY    128   LAYER   1   ROW     9   COL     8   RATE     750.000    
 BOUNDARY    129   LAYER   1   ROW     9   COL     9   RATE     750.000    
 BOUNDARY    130   LAYER   1   ROW     9   COL    10   RATE     750.000    
 BOUNDARY    131   LAYER   1   ROW     9   COL    11   RATE     750.000    
 BOUNDARY    132   LAYER   1   ROW     9   COL    12   RATE     750.000    
 BOUNDARY    133   LAYER   1   ROW     9   COL    13   RATE     750.000    
 BOUNDARY    134   LAYER   1   ROW     9   COL    14   RATE     750.000    
 BOUNDARY    135   LAYER   1   ROW     9   COL    15   RATE     750.000    
 BOUNDARY    137   LAYER   1   ROW    10   COL     2   RATE     750.000    
 BOUNDARY    138   LAYER   1   ROW    10   COL     3   RATE     750.000    
 BOUNDARY    139   LAYER   1   ROW    10   COL     4   RATE     750.000    
 BOUNDARY    140   LAYER   1   ROW    10   COL     5   RATE     750.000    
 BOUNDARY    141   LAYER   1   ROW    10   COL     6   RATE     750.000    
 BOUNDARY    142   LAYER   1   ROW    10   COL     7   RATE     750.000    
 BOUNDARY    143   LAYER   1   ROW    10   COL     8   RATE     750.000    
 BOUNDARY    144   LAYER   1   ROW    10   COL     9   RATE     750.000    
 BOUNDARY    145   LAYER   1   ROW    10   COL    10   RATE     750.000    
 BOUNDARY    146   LAYER   1   ROW    10   COL    11   RATE     750.000    
 BOUNDARY    147   LAYER   1   ROW    10   COL    12   RATE     750.000    
 BOUNDARY    148   LAYER   1   ROW    10   COL    13   RATE     750.000    
 BOUNDARY    149   LAYER   1   ROW    10   COL    14   RATE     750.000    
 BOUNDARY    150   LAYER   1   ROW    10   COL    15   RATE     750.000    
 UBDSV4 SAVING ET SEGS          ON UNIT   1017 AT TIME STEP      2, STRESS PERIOD      2

 ET SEGS            PERIOD  2   STEP  2
 BOUNDARY      1   LAYER   1   ROW     1   COL    13   RATE    -53.3304      ET-1
 BOUNDARY      2   LAYER   1   ROW     2   COL    13   RATE    -100.791      ET-2
 BOUNDARY      3   LAYER   1   ROW     3   COL    13   RATE    -139.186      ET-3
 BOUNDARY      4   LAYER   1   ROW     4   COL    13   RATE    -169.060      ET-4
 BOUNDARY      5   LAYER   1   ROW     5   COL    13   RATE    -273.720      ET-5
 BOUNDARY      6   LAYER   1   ROW     6   COL    13   RATE    -272.858      ET-6
 BOUNDARY      7   LAYER   1   ROW     7   COL    13   RATE    -208.711      ET-7
 BOUNDARY      8   LAYER   1   ROW     8   COL    13   RATE    -165.555      ET-8
 BOUNDARY      9   LAYER   1   ROW     9   COL    13   RATE    -109.861      ET-9
 BOUNDARY     10   LAYER   1   ROW    10   COL    13   RATE    -27.6243      ET-10
 BOUNDARY     11   LAYER   1   ROW     1   COL    12   RATE    -81.2375      ET-1
 BOUNDARY     12   LAYER   1   ROW     2   COL    12   RATE    -140.809      ET-2
 BOUNDARY     13   LAYER   1   ROW     3   COL    12   RATE    -196.839      ET-3
 BOUNDARY     14   LAYER   1   ROW     4   COL    12   RATE    -243.557      ET-4
 BOUNDARY     15   LAYER   1   ROW     5   COL    12   RATE    -401.474      ET-5
 BOUNDARY     16   LAYER   1   ROW     6   COL    12   RATE    -400.580      ET-6
 BOUNDARY     17   LAYER   1   ROW     7   COL    12   RATE    -301.413      ET-7
 BOUNDARY     18   LAYER   1   ROW     8   COL    12   RATE    -234.230      ET-8
 BOUNDARY     19   LAYER   1   ROW     9   COL    12   RATE    -158.031      ET-9
 BOUNDARY     20   LAYER   1   ROW    10   COL    12   RATE    -44.3795      ET-10
 UBDSV4 SAVING CONSTANT HEADS   ON UNIT   1017 AT TIME STEP      2, STRESS PERIOD      2

 CONSTANT HEADS     PERIOD  2   STEP  2
 BOUNDARY      1   LAYER   1   ROW     1   COL     1   RATE     2649.55      CHD-1
 BOUNDARY      2   LAYER   1   ROW     4   COL     1   RATE     4712.28    
 BOUNDARY      3   LAYER   1   ROW     5   COL     1   RATE     835.741      CHD_GP
 BOUNDARY      4   LAYER   1   ROW     6   COL     1   RATE     4335.71      CHD_GP
 BOUNDARY      5   LAYER   1   ROW    10   COL     1   RATE     1803.68      CHD-10

 HEAD WILL BE SAVED ON UNIT 1018 AT END OF TIME STEP    2, STRESS PERIOD    2
WEL   no.    1 value from time series:  -30000.     for time:  1.400     to  1.600    
WEL   no.    2 value from time series:  -3000.0     for time:  1.400     to  1.600    
RIV   no.    1 value from time series:   102.00     for time:  1.400     to  1.600    
RIV   no.    2 value from time series:   102.00     for time:  1.400     to  1.600    
RIV   no.    3 value from time series:   102.00     for time:  1.400     to  1.600    
RIV   no.    4 value from time series:   102.00     for time:  1.400     to  1.600    
RIV   no.    5 value from time series:   102.00     for time:  1.400     to  1.600    
RIV   no.    6 value from time series:   102.00     for time:  1.400     to  1.600    
RIV   no.    7 value from time series:   102.00     for time:  1.400     to  1.600    
RIV   no.    8 value from time series:   102.00     for time:  1.400     to  1.600    
RIV   no.    9 value from time series:   102.00     for time:  1.400     to  1.600    
RIV   no.   10 value from time series:   102.00     for time:  1.400     to  1.600    
EVT   no.    1 value from time series:   717.19     for time:  1.400     to  1.600    
EVT   no.    2 value from time series:   1434.4     for time:  1.400     to  1.600    
EVT   no.    3 value from time series:   2151.6     for time:  1.400     to  1.600    
EVT   no.    4 value from time series:   2868.8     for time:  1.400     to  1.600    
EVT   no.   10 value from time series:   358.59     for time:  1.400     to  1.600    
EVT   no.   11 value from time series:   717.19     for time:  1.400     to  1.600    
EVT   no.   12 value from time series:   1434.4     for time:  1.400     to  1.600    
EVT   no.   13 value from time series:   2151.6     for time:  1.400     to  1.600    
EVT   no.   14 value from time series:   2868.8     for time:  1.400     to  1.600    
EVT   no.   20 value from time series:   358.59     for time:  1.400     to  1.600    
WEL   no.    1 value from time series:  -30000.     for time:  1.400     to  1.600    
WEL   no.    2 value from time series:  -3000.0     for time:  1.400     to  1.600    
RIV   no.    1 value from time series:   102.00     for time:  1.400     to  1.600    
RIV   no.    2 value from time series:   102.00     for time:  1.400     to  1.600    
RIV   no.    3 value from time series:   102.00     for time:  1.400     to  1.600    
RIV   no.    4 value from time series:   102.00     for time:  1.400     to  1.600    
RIV   no.    5 value from time series:   102.00     for time:  1.400     to  1.600    
RIV   no.    6 value from time series:   102.00     for time:  1.400     to  1.600    
RIV   no.    7 value from time series:   102.00     for time:  1.400     to  1.600    
RIV   no.    8 value from time series:   102.00     for time:  1.400     to  1.600    
RIV   no.    9 value from time series:   102.00     for time:  1.400     to  1.600    
RIV   no.   10 value from time series:   102.00     for time:  1.400     to  1.600    
EVT   no.    1 value from time series:   717.19     for time:  1.400     to  1.600    
EVT   no.    2 value from time series:   1434.4     for time:  1.400     to  1.600    
EVT   no.    3 value from time series:   2151.6     for time:  1.400     to  1.600    
EVT   no.    4 value from time series:   2868.8     for time:  1.400     to  1.600    
EVT   no.   10 value from time series:   358.59     for time:  1.400     to  1.600    
EVT   no.   11 value from time series:   717.19     for time:  1.400     to  1.600    
EVT   no.   12 value from time series:   1434.4     for time:  1.400     to  1.600    
EVT   no.   13 value from time series:   2151.6     for time:  1.400     to  1.600    
EVT   no.   14 value from time series:   2868.8     for time:  1.400     to  1.600    
EVT   no.   20 value from time series:   358.59     for time:  1.400     to  1.600    

 OUTPUT CONTROL FOR STRESS PERIOD    2   TIME STEP    3
    SAVE BUDGET
    SAVE HEAD
    SAVE HEAD FOR ALL LAYERS
 UBDSV1 SAVING      STORAGE(SS) ON UNIT   1017 AT TIME STEP      3, STRESS PERIOD      2
 UBDSV1 SAVING      STORAGE(SY) ON UNIT   1017 AT TIME STEP      3, STRESS PERIOD      2
 UBDSV1 SAVING FLOW RIGHT FACE  ON UNIT   1017 AT TIME STEP      3, STRESS PERIOD      2
 UBDSV1 SAVING FLOW FRONT FACE  ON UNIT   1017 AT TIME STEP      3, STRESS PERIOD      2
 UBDSV1 SAVING FLOW LOWER FACE  ON UNIT   1017 AT TIME STEP      3, STRESS PERIOD      2
 UBDSV4 SAVING WELLS NEAR RIVER ON UNIT   1017 AT TIME STEP      3, STRESS PERIOD      2

 WELLS NEAR RIVER   PERIOD  2   STEP  3
 BOUNDARY      1   LAYER   2   ROW     3   COL     4   RATE    -30000.0      WELL_1
 BOUNDARY      2   LAYER   2   ROW     8   COL     4   RATE    -3000.00      WELL_2
 BOUNDARY      3   LAYER   2   ROW     4   COL     6   RATE   -10.00000    
 BOUNDARY      4   LAYER   2   ROW     5   COL     8   RATE    -20.0000    
 BOUNDARY      5   LAYER   2   ROW     2   COL     9   RATE    -40.0000    
 UBDSV4 SAVING RIVER            ON UNIT   1017 AT TIME STEP      3, STRESS PERIOD      2

 RIVER              PERIOD  2   STEP  3
 BOUNDARY      1   LAYER   1   ROW     1   COL    15   RATE     8158.69    
 BOUNDARY      2   LAYER   1   ROW     2   COL    15   RATE     8176.58      RIV2
 BOUNDARY      3   LAYER   1   ROW     3   COL    15   RATE     8203.43      RIV3
 BOUNDARY      4   LAYER   1   ROW     4   COL    15   RATE     8231.39    
 BOUNDARY      5   LAYER   1   ROW     5   COL    15   RATE     8253.05    
 BOUNDARY      6   LAYER   1   ROW     6   COL    15   RATE     8253.68    
 BOUNDARY      7   LAYER   1   ROW     7   COL    15   RATE     8232.83      RIVX
 BOUNDARY      8   LAYER   1   ROW     8   COL    15   RATE     8201.84      RIVX
 BOUNDARY      9   LAYER   1   ROW     9   COL    15   RATE     8169.46      RIVX
 BOUNDARY     10   LAYER   1   ROW    10   COL    15   RATE     8146.38    

 GHB LAKES          PERIOD  2   STEP  3
 BOUNDARY      1   LAYER   1   ROW     3   COL     1   RATE    -7799.36    
 BOUNDARY      2   LAYER   1   ROW     7   COL     1   RATE     4424.57      GHB2_UPPER
 BOUNDARY      3   LAYER   1   ROW     7   COL     1   RATE    -10965.7      GHB2_LOWER
 UBDSV4 SAVING RECHARGE         ON UNIT   1017 AT TIME STEP      3, STRESS PERIOD      2

 RECHARGE           PERIOD  2   STEP  3
 BOUNDARY      2   LAYER   1   ROW     1   COL     2   RATE     750.000    
 BOUNDARY      3   LAYER   1   ROW     1   COL     3   RATE     750.000    
 BOUNDARY      4   LAYER   1   ROW     1   COL     4   RATE     750.000    
 BOUNDARY      5   LAYER   1   ROW     1   COL     5   RATE     750.000    
 BOUNDARY      6   LAYER   1   ROW     1   COL     6   RATE     750.000    
 BOUNDARY      7   LAYER   1   ROW     1   COL     7   RATE     750.000    
 BOUNDARY      8   LAYER   1   ROW     1   COL     8   RATE     750.000    
 BOUNDARY      9   LAYER   1   ROW     1   COL     9   RATE     750.000    
 BOUNDARY     10   LAYER   1   ROW     1   COL    10   RATE     750.000    
 BOUNDARY     11   LAYER   1   ROW     1   COL    11   RATE     750.000    
 BOUNDARY     12   LAYER   1   ROW     1   COL    12   RATE     750.000    
 BOUNDARY     13   LAYER   1   ROW     1   COL    13   RATE     750.000    
 BOUNDARY     14   LAYER   1   ROW     1   COL    14   RATE     750.000    
 BOUNDARY     15   LAYER   1   ROW     1   COL    15   RATE     750.000    
 BOUNDARY     16   LAYER   1   ROW     2   COL     1   RATE     750.000    
 BOUNDARY     17   LAYER   1   ROW     2   COL     2   RATE     750.000    
 BOUNDARY     18   LAYER   1   ROW     2   COL     3   RATE     750.000    
 BOUNDARY     19   LAYER   1   ROW     2   COL     4   RATE     750.000    
 BOUNDARY     20   LAYER   1   ROW     2   COL     5   RATE     750.000    
 BOUNDARY     21   LAYER   1   ROW     2   COL     6   RATE     750.000    
 BOUNDARY     22   LAYER   1   ROW     2   COL     7   RATE     750.000    
 BOUNDARY     23   LAYER   1   ROW     2   COL     8   RATE     750.000    
 BOUNDARY     24   LAYER   1   ROW     2   COL     9   RATE     750.000    
 BOUNDARY     25   LAYER   1   ROW     2   COL    10   RATE     750.000    
 BOUNDARY     26   LAYER   1   ROW     2   COL    11   RATE     750.000    
 BOUNDARY     27   LAYER   1   ROW     2   COL    12   RATE     750.000    
 BOUNDARY     28   LAYER   1   ROW     2   COL    13   RATE     750.000    
 BOUNDARY     29   LAYER   1   ROW     2   COL    14   RATE     750.000    
 BOUNDARY     30   LAYER   1   ROW     2   COL    15   RATE     750.000    
 BOUNDARY     31   LAYER   1   ROW     3   COL     1   RATE     750.000    
 BOUNDARY     32   LAYER   1   ROW     3   COL     2   RATE     750.000    
 BOUNDARY     33   LAYER   1   ROW     3   COL     3   RATE     750.000    
 BOUNDARY     34   LAYER   1   ROW     3   COL     4   RATE     750.000    
 BOUNDARY     35   LAYER   1   ROW     3   COL     5   RATE     750.000    
 BOUNDARY     36   LAYER   1   ROW     3   COL     6   RATE     750.000    
 BOUNDARY     37   LAYER   1   ROW     3   COL     7   RATE     750.000    
 BOUNDARY     38   LAYER   1   ROW     3   COL     8   RATE     750.000    
 BOUNDARY     39   LAYER   1   ROW     3   COL     9   RATE     750.000    
 BOUNDARY     40   LAYER   1   ROW     3   COL    10   RATE     750.000    
 BOUNDARY     41   LAYER   1   ROW     3   COL    11   RATE     750.000    
 BOUNDARY     42   LAYER   1   ROW     3   COL    12   RATE     750.000    
 BOUNDARY     43   LAYER   1   ROW     3   COL    13   RATE     750.000    
 BOUNDARY     44   LAYER   1   ROW     3   COL    14   RATE     750.000    
 BOUNDARY     45   LAYER   1   ROW     3   COL    15   RATE     750.000    
 BOUNDARY     47   LAYER   1   ROW     4   COL     2   RATE     750.000    
 BOUNDARY     48   LAYER   1   ROW     4   COL     3   RATE     750.000    
 BOUNDARY     49   LAYER   1   ROW     4   COL     4   RATE     750.000    
 BOUNDARY     50   LAYER   1   ROW     4   COL     5   RATE     750.000    
 BOUNDARY     51   LAYER   1   ROW     4   COL     6   RATE     750.000    
 BOUNDARY     52   LAYER   1   ROW     4   COL     7   RATE     750.000    
 BOUNDARY     53   LAYER   1   ROW     4   COL     8   RATE     750.000    
 BOUNDARY     54   LAYER   1   ROW     4   COL     9   RATE     750.000    
 BOUNDARY     55   LAYER   1   ROW     4   COL    10   RATE     750.000    
 BOUNDARY     56   LAYER   1   ROW     4   COL    11   RATE     750.000    
 BOUNDARY     57   LAYER   1   ROW     4   COL    12   RATE     750.000    
 BOUNDARY     58   LAYER   1   ROW     4   COL    13   RATE     750.000    
 BOUNDARY     59   LAYER   1   ROW     4   COL    14   RATE     750.000    
 BOUNDARY     60   LAYER   1   ROW     4   COL    15   RATE     750.000    
 BOUNDARY     62   LAYER   1   ROW     5   COL     2   RATE     750.000    
 BOUNDARY     63   LAYER   1   ROW     5   COL     3   RATE     750.000    
 BOUNDARY     64   LAYER   1   ROW     5   COL     4   RATE     750.000    
 BOUNDARY     65   LAYER   1   ROW     5   COL     5   RATE     750.000    
 BOUNDARY     66   LAYER   1   ROW     5   COL     6   RATE     750.000    
 BOUNDARY     67   LAYER   1   ROW     5   COL     7   RATE     750.000    
 BOUNDARY     68   LAYER   1   ROW     5   COL     8   RATE     750.000    
 BOUNDARY     69   LAYER   1   ROW     5   COL     9   RATE     750.000    
 BOUNDARY     70   LAYER   1   ROW     5   COL    10   RATE     750.000    
 BOUNDARY     71   LAYER   1   ROW     5   COL    11   RATE     750.000    
 BOUNDARY     72   LAYER   1   ROW     5   COL    12   RATE     750.000    
 BOUNDARY     73   LAYER   1   ROW     5   COL    13   RATE     750.000    
 BOUNDARY     74   LAYER   1   ROW     5   COL    14   RATE     750.000    
 BOUNDARY     75   LAYER   1   ROW     5   COL    15   RATE     750.000    
 BOUNDARY     77   LAYER   1   ROW     6   COL     2   RATE     750.000    
 BOUNDARY     78   LAYER   1   ROW     6   COL     3   RATE     750.000    
 BOUNDARY     79   LAYER   1   ROW     6   COL     4   RATE     750.000    
 BOUNDARY     80   LAYER   1   ROW     6   COL     5   RATE     750.000    
 BOUNDARY     81   LAYER   1   ROW     6   COL     6   RATE     750.000    
 BOUNDARY     82   LAYER   1   ROW     6   COL     7   RATE     750.000    
 BOUNDARY     83   LAYER   1   ROW     6   COL     8   RATE     750.000    
 BOUNDARY     84   LAYER   1   ROW     6   COL     9   RATE     750.000    
 BOUNDARY     85   LAYER   1   ROW     6   COL    10   RATE     750.000    
 BOUNDARY     86   LAYER   1   ROW     6   COL    11   RATE     750.000    
 BOUNDARY     87   LAYER   1   ROW     6   COL    12   RATE     750.000    
 BOUNDARY     88   LAYER   1   ROW     6   COL    13   RATE     750.000    
 BOUNDARY     89   LAYER   1   ROW     6   COL    14   RATE     750.000    
 BOUNDARY     90   LAYER   1   ROW     6   COL    15   RATE     750.000    
 BOUNDARY     91   LAYER   1   ROW     7   COL     1   RATE     750.000    
 BOUNDARY     92   LAYER   1   ROW     7   COL     2   RATE     750.000    
 BOUNDARY     93   LAYER   1   ROW     7   COL     3   RATE     750.000    
 BOUNDARY     94   LAYER   1   ROW     7   COL     4   RATE     750.000    
 BOUNDARY     95   LAYER   1   ROW     7   COL     5   RATE     750.000    
 BOUNDARY     96   LAYER   1   ROW     7   COL     6   RATE     750.000    
 BOUNDARY     97   LAYER   1   ROW     7   COL     7   RATE     750.000    
 BOUNDARY     98   LAYER   1   ROW     7   COL     8   RATE     750.000    
 BOUNDARY     99   LAYER   1   ROW     7   COL     9   RATE     750.000    
 BOUNDARY    100   LAYER   1   ROW     7   COL    10   RATE     750.000    
 BOUNDARY    101   LAYER   1   ROW     7   COL    11   RATE     750.000    
 BOUNDARY    102   LAYER   1   ROW     7   COL    12   RATE     750.000    
 BOUNDARY    103   LAYER   1   ROW     7   COL    13   RATE     750.000    
 BOUNDARY    104   LAYER   1   ROW     7   COL    14   RATE     750.000    
 BOUNDARY    105   LAYER   1   ROW     7   COL    15   RATE     750.000    
 BOUNDARY    106   LAYER   1   ROW     8   COL     1   RATE     750.000    
 BOUNDARY    107   LAYER   1   ROW     8   COL     2   RATE     750.000    
 BOUNDARY    108   LAYER   1   ROW     8   COL     3   RATE     750.000    
 BOUNDARY    109   LAYER   1   ROW     8   COL     4   RATE     750.000    
 BOUNDARY    110   LAYER   1   ROW     8   COL     5   RATE     750.000    
 BOUNDARY    111   LAYER   1   ROW     8   COL     6   RATE     750.000    
 BOUNDARY    112   LAYER   1   ROW     8   COL     7   RATE     750.000    
 BOUNDARY    113   LAYER   1   ROW     8   COL     8   RATE     750.000    
 BOUNDARY    114   LAYER   1   ROW     8   COL     9   RATE     750.000    
 BOUNDARY    115   LAYER   1   ROW     8   COL    10   RATE     750.000    
 BOUNDARY    116   LAYER   1   ROW     8   COL    11   RATE     750.000    
 BOUNDARY    117   LAYER   1   ROW     8   COL    12   RATE     750.000    
 BOUNDARY    118   LAYER   1   ROW     8   COL    13   RATE     750.000    
 BOUNDARY    119   LAYER   1   ROW     8   COL    14   RATE     750.000    
 BOUNDARY    120   LAYER   1   ROW     8   COL    15   RATE     750.000    
 BOUNDARY    121   LAYER   1   ROW     9   COL     1   RATE     750.000    
 BOUNDARY    122   LAYER   1   ROW     9   COL     2   RATE     750.000    
 BOUNDARY    123   LAYER   1   ROW     9   COL     3   RATE     750.000    
 BOUNDARY    124   LAYER   1   ROW     9   COL     4   RATE     750.000    
 BOUNDARY    125   LAYER   1   ROW     9   COL     5   RATE     750.000    
 BOUNDARY    126   LAYER   1   ROW     9   COL     6   RATE     750.000    
 BOUNDARY    127   LAYER   1   ROW     9   COL     7   RATE     750.000    
 BOUNDARY    128   LAYER   1   ROW     9   COL     8   RATE     750.000    
 BOUNDARY    129   LAYER   1   ROW     9   COL     9   RATE     750.000    
 BOUNDARY    130   LAYER   1   ROW     9   COL    10   RATE     750.000    
 BOUNDARY    131   LAYER   1   ROW     9   COL    11   RATE     750.000    
 BOUNDARY    132   LAYER   1   ROW     9   COL    12   RATE     750.000    
 BOUNDARY    133   LAYER   1   ROW     9   COL    13   RATE     750.000    
 BOUNDARY    134   LAYER   1   ROW     9   COL    14   RATE     750.000    
 BOUNDARY    135   LAYER   1   ROW     9   COL    15   RATE     750.000    
 BOUNDARY    137   LAYER   1   ROW    10   COL     2   RATE     750.000    
 BOUNDARY    138   LAYER   1   ROW    10   COL     3   RATE     750.000    
 BOUNDARY    139   LAYER   1   ROW    10   COL     4   RATE     750.000    
 BOUNDARY    140   LAYER   1   ROW    10   COL     5   RATE     750.000    
 BOUNDARY    141   LAYER   1   ROW    10   COL     6   RATE     750.000    
 BOUNDARY    142   LAYER   1   ROW    10   COL     7   RATE     750.000    
 BOUNDARY    143   LAYER   1   ROW    10   COL     8   RATE     750.000    
 BOUNDARY    144   LAYER   1   ROW    10   COL     9   RATE     750.000    
 BOUNDARY    145   LAYER   1   ROW    10   COL    10   RATE     750.000    
 BOUNDARY    146   LAYER   1   ROW    10   COL    11   RATE     750.000    
 BOUNDARY    147   LAYER   1   ROW    10   COL    12   RATE     750.000    
 BOUNDARY    148   LAYER   1   ROW    10   COL    13   RATE     750.000    
 BOUNDARY    149   LAYER   1   ROW    10   COL    14   RATE     750.000    
 BOUNDARY    150   LAYER   1   ROW    10   COL    15   RATE     750.000    
 UBDSV4 SAVING ET SEGS          ON UNIT   1017 AT TIME STEP      3, STRESS PERIOD      2

 ET SEGS            PERIOD  2   STEP  3
 BOUNDARY      1   LAYER   1   ROW     1   COL    13   RATE    -54.6963      ET-1
 BOUNDARY      2   LAYER   1   ROW     2   COL    13   RATE    -103.383      ET-2
 BOUNDARY      3   LAYER   1   ROW     3   COL    13   RATE    -142.785      ET-3
 BOUNDARY      4   LAYER   1   ROW     4   COL    13   RATE    -173.462      ET-4
 BOUNDARY      5   LAYER   1   ROW     5   COL    13   RATE    -274.278      ET-5
 BOUNDARY      6   LAYER   1   ROW     6   COL    13   RATE    -273.416      ET-6
 BOUNDARY      7   LAYER   1   ROW     7   COL    13   RATE    -209.103      ET-7
 BOUNDARY      8   LAYER   1   ROW     8   COL    13   RATE    -165.834      ET-8
 BOUNDARY      9   LAYER   1   ROW     9   COL    13   RATE    -110.029      ET-9
 BOUNDARY     10   LAYER   1   ROW    10   COL    13   RATE    -28.3302      ET-10
 BOUNDARY     11   LAYER   1   ROW     1   COL    12   RATE    -83.4655      ET-1
 BOUNDARY     12   LAYER   1   ROW     2   COL    12   RATE    -144.747      ET-2
 BOUNDARY     13   LAYER   1   ROW     3   COL    12   RATE    -201.829      ET-3
 BOUNDARY     14   LAYER   1   ROW     4   COL    12   RATE    -249.757      ET-4
 BOUNDARY     15   LAYER   1   ROW     5   COL    12   RATE    -402.033      ET-5
 BOUNDARY     16   LAYER   1   ROW     6   COL    12   RATE    -401.138      ET-6
 BOUNDARY     17   LAYER   1   ROW     7   COL    12   RATE    -301.805      ET-7
 BOUNDARY     18   LAYER   1   ROW     8   COL    12   RATE    -234.509      ET-8
 BOUNDARY     19   LAYER   1   ROW     9   COL    12   RATE    -158.589      ET-9
 BOUNDARY     20   LAYER   1   ROW    10   COL    12   RATE    -45.5835      ET-10
 UBDSV4 SAVING CONSTANT HEADS   ON UNIT   1017 AT TIME STEP      3, STRESS PERIOD      2

 CONSTANT HEADS     PERIOD  2   STEP  3
 BOUNDARY      1   LAYER   1   ROW     1   COL     1   RATE     2646.71      CHD-1
 BOUNDARY      2   LAYER   1   ROW     4   COL     1   RATE     4709.97    
 BOUNDARY      3   LAYER   1   ROW     5   COL     1   RATE     834.291      CHD_GP
 BOUNDARY      4   LAYER   1   ROW     6   COL     1   RATE     4333.13      CHD_GP
 BOUNDARY      5   LAYER   1   ROW    10   COL     1   RATE     1800.71      CHD-10

 HEAD WILL BE SAVED ON UNIT 1018 AT END OF TIME STEP    3, STRESS PERIOD    2
WEL   no.    1 value from time series:  -30000.     for time:  1.600     to  1.800    
WEL   no.    2 value from time series:  -3400.0     for time:  1.600     to  1.800    
RIV   no.    1 value from time series:   102.40     for time:  1.600     to  1.800    
RIV   no.    2 value from time series:   102.40     for time:  1.600     to  1.800    
RIV   no.    3 value from time series:   102.40     for time:  1.600     to  1.800    
RIV   no.    4 value from time series:   102.40     for time:  1.600     to  1.800    
RIV   no.    5 value from time series:   102.40     for time:  1.600     to  1.800    
RIV   no.    6 value from time series:   102.40     for time:  1.600     to  1.800    
RIV   no.    7 value from time series:   102.40     for time:  1.600     to  1.800    
RIV   no.    8 value from time series:   102.40     for time:  1.600     to  1.800    
RIV   no.    9 value from time series:   102.40     for time:  1.600     to  1.800    
RIV   no.   10 value from time series:   102.40     for time:  1.600     to  1.800    
EVT   no.    1 value from time series:   734.06     for time:  1.600     to  1.800    
EVT   no.    2 value from time series:   1468.1     for time:  1.600     to  1.800    
EVT   no.    3 value from time series:   2202.2     for time:  1.600     to  1.800    
EVT   no.    4 value from time series:   2936.3     for time:  1.600     to  1.800    
EVT   no.   10 value from time series:   367.03     for time:  1.600     to  1.800    
EVT   no.   11 value from time series:   734.06     for time:  1.600     to  1.800    
EVT   no.   12 value from time series:   1468.1     for time:  1.600     to  1.800    
EVT   no.   13 value from time series:   2202.2     for time:  1.600     to  1.800    
EVT   no.   14 value from time series:   2936.3     for time:  1.600     to  1.800    
EVT   no.   20 value from time series:   367.03     for time:  1.600     to  1.800    
WEL   no.    1 value from time series:  -30000.     for time:  1.600     to  1.800    
WEL   no.    2 value from time series:  -3400.0     for time:  1.600     to  1.800    
RIV   no.    1 value from time series:   102.40     for time:  1.600     to  1.800    
RIV   no.    2 value from time series:   102.40     for time:  1.600     to  1.800    
RIV   no.    3 value from time series:   102.40     for time:  1.600     to  1.800    
RIV   no.    4 value from time series:   102.40     for time:  1.600     to  1.800    
RIV   no.    5 value from time series:   102.40     for time:  1.600     to  1.800    
RIV   no.    6 value from time series:   102.40     for time:  1.600     to  1.800    
RIV   no.    7 value from time series:   102.40     for time:  1.600     to  1.800    
RIV   no.    8 value from time series:   102.40     for time:  1.600     to  1.800    
RIV   no.    9 value from time series:   102.40     for time:  1.600     to  1.800    
RIV   no.   10 value from time series:   102.40     for time:  1.600     to  1.800    
EVT   no.    1 value from time series:   734.06     for time:  1.600     to  1.800    
EVT   no.    2 value from time series:   1468.1     for time:  1.600     to  1.800    
EVT   no.    3 value from time series:   2202.2     for time:  1.600     to  1.800    
EVT   no.    4 value from time series:   2936.3     for time:  1.600     to  1.800    
EVT   no.   10 value from time series:   367.03     for time:  1.600     to  1.800    
EVT   no.   11 value from time series:   734.06     for time:  1.600     to  1.800    
EVT   no.   12 value from time series:   1468.1     for time:  1.600     to  1.800    
EVT   no.   13 value from time series:   2202.2     for time:  1.600     to  1.800    
EVT   no.   14 value from time series:   2936.3     for time:  1.600     to  1.800    
EVT   no.   20 value from time series:   367.03     for time:  1.600     to  1.800    

 OUTPUT CONTROL FOR STRESS PERIOD    2   TIME STEP    4
    SAVE BUDGET
    SAVE HEAD
    SAVE HEAD FOR ALL LAYERS
 UBDSV1 SAVING      STORAGE(SS) ON UNIT   1017 AT TIME STEP      4, STRESS PERIOD      2
 UBDSV1 SAVING      STORAGE(SY) ON UNIT   1017 AT TIME STEP      4, STRESS PERIOD      2
 UBDSV1 SAVING FLOW RIGHT FACE  ON UNIT   1017 AT TIME STEP      4, STRESS PERIOD      2
 UBDSV1 SAVING FLOW FRONT FACE  ON UNIT   1017 AT TIME STEP      4, STRESS PERIOD      2
 UBDSV1 SAVING FLOW LOWER FACE  ON UNIT   1017 AT TIME STEP      4, STRESS PERIOD      2
 UBDSV4 SAVING WELLS NEAR RIVER ON UNIT   1017 AT TIME STEP      4, STRESS PERIOD      2

 WELLS NEAR RIVER   PERIOD  2   STEP  4
 BOUNDARY      1   LAYER   2   ROW     3   COL     4   RATE    -30000.0      WELL_1
 BOUNDARY      2   LAYER   2   ROW     8   COL     4   RATE    -3400.00      WELL_2
 BOUNDARY      3   LAYER   2   ROW     4   COL     6   RATE   -10.00000    
 BOUNDARY      4   LAYER   2   ROW     5   COL     8   RATE    -20.0000    
 BOUNDARY      5   LAYER   2   ROW     2   COL     9   RATE    -40.0000    
 UBDSV4 SAVING RIVER            ON UNIT   1017 AT TIME STEP      4, STRESS PERIOD      2

 RIVER              PERIOD  2   STEP  4
 BOUNDARY      1   LAYER   1   ROW     1   COL    15   RATE     11162.2    
 BOUNDARY      2   LAYER   1   ROW     2   COL    15   RATE     11180.1      RIV2
 BOUNDARY      3   LAYER   1   ROW     3   COL    15   RATE     11206.9      RIV3
 BOUNDARY      4   LAYER   1   ROW     4   COL    15   RATE     11234.9    
 BOUNDARY      5   LAYER   1   ROW     5   COL    15   RATE     11256.6    
 BOUNDARY      6   LAYER   1   ROW     6   COL    15   RATE     11257.2    
 BOUNDARY      7   LAYER   1   ROW     7   COL    15   RATE     11236.3      RIVX
 BOUNDARY      8   LAYER   1   ROW     8   COL    15   RATE     11205.3      RIVX
 BOUNDARY      9   LAYER   1   ROW     9   COL    15   RATE     11173.0      RIVX
 BOUNDARY     10   LAYER   1   ROW    10   COL    15   RATE     11149.9    

 GHB LAKES          PERIOD  2   STEP  4
 BOUNDARY      1   LAYER   1   ROW     3   COL     1   RATE    -7807.22    
 BOUNDARY      2   LAYER   1   ROW     7   COL     1   RATE     4417.58      GHB2_UPPER
 BOUNDARY      3   LAYER   1   ROW     7   COL     1   RATE    -10968.2      GHB2_LOWER
 UBDSV4 SAVING RECHARGE         ON UNIT   1017 AT TIME STEP      4, STRESS PERIOD      2

 RECHARGE           PERIOD  2   STEP  4
 BOUNDARY      2   LAYER   1   ROW     1   COL     2   RATE     750.000    
 BOUNDARY      3   LAYER   1   ROW     1   COL     3   RATE     750.000    
 BOUNDARY      4   LAYER   1   ROW     1   COL     4   RATE     750.000    
 BOUNDARY      5   LAYER   1   ROW     1   COL     5   RATE     750.000    
 BOUNDARY      6   LAYER   1   ROW     1   COL     6   RATE     750.000    
 BOUNDARY      7   LAYER   1   ROW     1   COL     7   RATE     750.000    
 BOUNDARY      8   LAYER   1   ROW     1   COL     8   RATE     750.000    
 BOUNDARY      9   LAYER   1   ROW     1   COL     9   RATE     750.000    
 BOUNDARY     10   LAYER   1   ROW     1   COL    10   RATE     750.000    
 BOUNDARY     11   LAYER   1   ROW     1   COL    11   RATE     750.000    
 BOUNDARY     12   LAYER   1   ROW     1   COL    12   RATE     750.000    
 BOUNDARY     13   LAYER   1   ROW     1   COL    13   RATE     750.000    
 BOUNDARY     14   LAYER   1   ROW     1   COL    14   RATE     750.000    
 BOUNDARY     15   LAYER   1   ROW     1   COL    15   RATE     750.000    
 BOUNDARY     16   LAYER   1   ROW     2   COL     1   RATE     750.000    
 BOUNDARY     17   LAYER   1   ROW     2   COL     2   RATE     750.000    
 BOUNDARY     18   LAYER   1   ROW     2   COL     3   RATE     750.000    
 BOUNDARY     19   LAYER   1   ROW     2   COL     4   RATE     750.000    
 BOUNDARY     20   LAYER   1   ROW     2   COL     5   RATE     750.000    
 BOUNDARY     21   LAYER   1   ROW     2   COL     6   RATE     750.000    
 BOUNDARY     22   LAYER   1   ROW     2   COL     7   RATE     750.000    
 BOUNDARY     23   LAYER   1   ROW     2   COL     8   RATE     750.000    
 BOUNDARY     24   LAYER   1   ROW     2   COL     9   RATE     750.000    
 BOUNDARY     25   LAYER   1   ROW     2   COL    10   RATE     750.000    
 BOUNDARY     26   LAYER   1   ROW     2   COL    11   RATE     750.000    
 BOUNDARY     27   LAYER   1   ROW     2   COL    12   RATE     750.000    
 BOUNDARY     28   LAYER   1   ROW     2   COL    13   RATE     750.000    
 BOUNDARY     29   LAYER   1   ROW     2   COL    14   RATE     750.000    
 BOUNDARY     30   LAYER   1   ROW     2   COL    15   RATE     750.000    
 BOUNDARY     31   LAYER   1   ROW     3   COL     1   RATE     750.000    
 BOUNDARY     32   LAYER   1   ROW     3   COL     2   RATE     750.000    
 BOUNDARY     33   LAYER   1   ROW     3   COL     3   RATE     750.000    
 BOUNDARY     34   LAYER   1   ROW     3   COL     4   RATE     750.000    
 BOUNDARY     35   LAYER   1   ROW     3   COL     5   RATE     750.000    
 BOUNDARY     36   LAYER   1   ROW     3   COL     6   RATE     750.000    
 BOUNDARY     37   LAYER   1   ROW     3   COL     7   RATE     750.000    
 BOUNDARY     38   LAYER   1   ROW     3   COL     8   RATE     750.000    
 BOUNDARY     39   LAYER   1   ROW     3   COL     9   RATE     750.000    
 BOUNDARY     40   LAYER   1   ROW     3   COL    10   RATE     750.000    
 BOUNDARY     41   LAYER   1   ROW     3   COL    11   RATE     750.000    
 BOUNDARY     42   LAYER   1   ROW     3   COL    12   RATE     750.000    
 BOUNDARY     43   LAYER   1   ROW     3   COL    13   RATE     750.000    
 BOUNDARY     44   LAYER   1   ROW     3   COL    14   RATE     750.000    
 BOUNDARY     45   LAYER   1   ROW     3   COL    15   RATE     750.000    
 BOUNDARY     47   LAYER   1   ROW     4   COL     2   RATE     750.000    
 BOUNDARY     48   LAYER   1   ROW     4   COL     3   RATE     750.000    
 BOUNDARY     49   LAYER   1   ROW     4   COL     4   RATE     750.000    
 BOUNDARY     50   LAYER   1   ROW     4   COL     5   RATE     750.000    
 BOUNDARY     51   LAYER   1   ROW     4   COL     6   RATE     750.000    
 BOUNDARY     52   LAYER   1   ROW     4   COL     7   RATE     750.000    
 BOUNDARY     53   LAYER   1   ROW     4   COL     8   RATE     750.000    
 BOUNDARY     54   LAYER   1   ROW     4   COL     9   RATE     750.000    
 BOUNDARY     55   LAYER   1   ROW     4   COL    10   RATE     750.000    
 BOUNDARY     56   LAYER   1   ROW     4   COL    11   RATE     750.000    
 BOUNDARY     57   LAYER   1   ROW     4   COL    12   RATE     750.000    
 BOUNDARY     58   LAYER   1   ROW     4   COL    13   RATE     750.000    
 BOUNDARY     59   LAYER   1   ROW     4   COL    14   RATE     750.000    
 BOUNDARY     60   LAYER   1   ROW     4   COL    15   RATE     750.000    
 BOUNDARY     62   LAYER   1   ROW     5   COL     2   RATE     750.000    
 BOUNDARY     63   LAYER   1   ROW     5   COL     3   RATE     750.000    
 BOUNDARY     64   LAYER   1   ROW     5   COL     4   RATE     750.000    
 BOUNDARY     65   LAYER   1   ROW     5   COL     5   RATE     750.000    
 BOUNDARY     66   LAYER   1   ROW     5   COL     6   RATE     750.000    
 BOUNDARY     67   LAYER   1   ROW     5   COL     7   RATE     750.000    
 BOUNDARY     68   LAYER   1   ROW     5   COL     8   RATE     750.000    
 BOUNDARY     69   LAYER   1   ROW     5   COL     9   RATE     750.000    
 BOUNDARY     70   LAYER   1   ROW     5   COL    10   RATE     750.000    
 BOUNDARY     71   LAYER   1   ROW     5   COL    11   RATE     750.000    
 BOUNDARY     72   LAYER   1   ROW     5   COL    12   RATE     750.000    
 BOUNDARY     73   LAYER   1   ROW     5   COL    13   RATE     750.000    
 BOUNDARY     74   LAYER   1   ROW     5   COL    14   RATE     750.000    
 BOUNDARY     75   LAYER   1   ROW     5   COL    15   RATE     750.000    
 BOUNDARY     77   LAYER   1   ROW     6   COL     2   RATE     750.000    
 BOUNDARY     78   LAYER   1   ROW     6   COL     3   RATE     750.000    
 BOUNDARY     79   LAYER   1   ROW     6   COL     4   RATE     750.000    
 BOUNDARY     80   LAYER   1   ROW     6   COL     5   RATE     750.000    
 BOUNDARY     81   LAYER   1   ROW     6   COL     6   RATE     750.000    
 BOUNDARY     82   LAYER   1   ROW     6   COL     7   RATE     750.000    
 BOUNDARY     83   LAYER   1   ROW     6   COL     8   RATE     750.000    
 BOUNDARY     84   LAYER   1   ROW     6   COL     9   RATE     750.000    
 BOUNDARY     85   LAYER   1   ROW     6   COL    10   RATE     750.000    
 BOUNDARY     86   LAYER   1   ROW     6   COL    11   RATE     750.000    
 BOUNDARY     87   LAYER   1   ROW     6   COL    12   RATE     750.000    
 BOUNDARY     88   LAYER   1   ROW     6   COL    13   RATE     750.000    
 BOUNDARY     89   LAYER   1   ROW     6   COL    14   RATE     750.000    
 BOUNDARY     90   LAYER   1   ROW     6   COL    15   RATE     750.000    
 BOUNDARY     91   LAYER   1   ROW     7   COL     1   RATE     750.000    
 BOUNDARY     92   LAYER   1   ROW     7   COL     2   RATE     750.000    
 BOUNDARY     93   LAYER   1   ROW     7   COL     3   RATE     750.000    
 BOUNDARY     94   LAYER   1   ROW     7   COL     4   RATE     750.000    
 BOUNDARY     95   LAYER   1   ROW     7   COL     5   RATE     750.000    
 BOUNDARY     96   LAYER   1   ROW     7   COL     6   RATE     750.000    
 BOUNDARY     97   LAYER   1   ROW     7   COL     7   RATE     750.000    
 BOUNDARY     98   LAYER   1   ROW     7   COL     8   RATE     750.000    
 BOUNDARY     99   LAYER   1   ROW     7   COL     9   RATE     750.000    
 BOUNDARY    100   LAYER   1   ROW     7   COL    10   RATE     750.000    
 BOUNDARY    101   LAYER   1   ROW     7   COL    11   RATE     750.000    
 BOUNDARY    102   LAYER   1   ROW     7   COL    12   RATE     750.000    
 BOUNDARY    103   LAYER   1   ROW     7   COL    13   RATE     750.000    
 BOUNDARY    104   LAYER   1   ROW     7   COL    14   RATE     750.000    
 BOUNDARY    105   LAYER   1   ROW     7   COL    15   RATE     750.000    
 BOUNDARY    106   LAYER   1   ROW     8   COL     1   RATE     750.000    
 BOUNDARY    107   LAYER   1   ROW     8   COL     2   RATE     750.000    
 BOUNDARY    108   LAYER   1   ROW     8   COL     3   RATE     750.000    
 BOUNDARY    109   LAYER   1   ROW     8   COL     4   RATE     750.000    
 BOUNDARY    110   LAYER   1   ROW     8   COL     5   RATE     750.000    
 BOUNDARY    111   LAYER   1   ROW     8   COL     6   RATE     750.000    
 BOUNDARY    112   LAYER   1   ROW     8   COL     7   RATE     750.000    
 BOUNDARY    113   LAYER   1   ROW     8   COL     8   RATE     750.000    
 BOUNDARY    114   LAYER   1   ROW     8   COL     9   RATE     750.000    
 BOUNDARY    115   LAYER   1   ROW     8   COL    10   RATE     750.000    
 BOUNDARY    116   LAYER   1   ROW     8   COL    11   RATE     750.000    
 BOUNDARY    117   LAYER   1   ROW     8   COL    12   RATE     750.000    
 BOUNDARY    118   LAYER   1   ROW     8   COL    13   RATE     750.000    
 BOUNDARY    119   LAYER   1   ROW     8   COL    14   RATE     750.000    
 BOUNDARY    120   LAYER   1   ROW     8   COL    15   RATE     750.000    
 BOUNDARY    121   LAYER   1   ROW     9   COL     1   RATE     750.000    
 BOUNDARY    122   LAYER   1   ROW     9   COL     2   RATE     750.000    
 BOUNDARY    123   LAYER   1   ROW     9   COL     3   RATE     750.000    
 BOUNDARY    124   LAYER   1   ROW     9   COL     4   RATE     750.000    
 BOUNDARY    125   LAYER   1   ROW     9   COL     5   RATE     750.000    
 BOUNDARY    126   LAYER   1   ROW     9   COL     6   RATE     750.000    
 BOUNDARY    127   LAYER   1   ROW     9   COL     7   RATE     750.000    
 BOUNDARY    128   LAYER   1   ROW     9   COL     8   RATE     750.000    
 BOUNDARY    129   LAYER   1   ROW     9   COL     9   RATE     750.000    
 BOUNDARY    130   LAYER   1   ROW     9   COL    10   RATE     750.000    
 BOUNDARY    131   LAYER   1   ROW     9   COL    11   RATE     750.000    
 BOUNDARY    132   LAYER   1   ROW     9   COL    12   RATE     750.000    
 BOUNDARY    133   LAYER   1   ROW     9   COL    13   RATE     750.000    
 BOUNDARY    134   LAYER   1   ROW     9   COL    14   RATE     750.000    
 BOUNDARY    135   LAYER   1   ROW     9   COL    15   RATE     750.000    
 BOUNDARY    137   LAYER   1   ROW    10   COL     2   RATE     750.000    
 BOUNDARY    138   LAYER   1   ROW    10   COL     3   RATE     750.000    
 BOUNDARY    139   LAYER   1   ROW    10   COL     4   RATE     750.000    
 BOUNDARY    140   LAYER   1   ROW    10   COL     5   RATE     750.000    
 BOUNDARY    141   LAYER   1   ROW    10   COL     6   RATE     750.000    
 BOUNDARY    142   LAYER   1   ROW    10   COL     7   RATE     750.000    
 BOUNDARY    143   LAYER   1   ROW    10   COL     8   RATE     750.000    
 BOUNDARY    144   LAYER   1   ROW    10   COL     9   RATE     750.000    
 BOUNDARY    145   LAYER   1   ROW    10   COL    10   RATE     750.000    
 BOUNDARY    146   LAYER   1   ROW    10   COL    11   RATE     750.000    
 BOUNDARY    147   LAYER   1   ROW    10   COL    12   RATE     750.000    
 BOUNDARY    148   LAYER   1   ROW    10   COL    13   RATE     750.000    
 BOUNDARY    149   LAYER   1   ROW    10   COL    14   RATE     750.000    
 BOUNDARY    150   LAYER   1   ROW    10   COL    15   RATE     750.000    
 UBDSV4 SAVING ET SEGS          ON UNIT   1017 AT TIME STEP      4, STRESS PERIOD      2

 ET SEGS            PERIOD  2   STEP  4
 BOUNDARY      1   LAYER   1   ROW     1   COL    13   RATE    -56.0659      ET-1
 BOUNDARY      2   LAYER   1   ROW     2   COL    13   RATE    -105.981      ET-2
 BOUNDARY      3   LAYER   1   ROW     3   COL    13   RATE    -146.395      ET-3
 BOUNDARY      4   LAYER   1   ROW     4   COL    13   RATE    -177.877      ET-4
 BOUNDARY      5   LAYER   1   ROW     5   COL    13   RATE    -274.837      ET-5
 BOUNDARY      6   LAYER   1   ROW     6   COL    13   RATE    -273.974      ET-6
 BOUNDARY      7   LAYER   1   ROW     7   COL    13   RATE    -209.494      ET-7
 BOUNDARY      8   LAYER   1   ROW     8   COL    13   RATE    -166.114      ET-8
 BOUNDARY      9   LAYER   1   ROW     9   COL    13   RATE    -110.197      ET-9
 BOUNDARY     10   LAYER   1   ROW    10   COL    13   RATE    -29.0380      ET-10
 BOUNDARY     11   LAYER   1   ROW     1   COL    12   RATE    -85.7052      ET-1
 BOUNDARY     12   LAYER   1   ROW     2   COL    12   RATE    -148.707      ET-2
 BOUNDARY     13   LAYER   1   ROW     3   COL    12   RATE    -206.830      ET-3
 BOUNDARY     14   LAYER   1   ROW     4   COL    12   RATE    -255.971      ET-4
 BOUNDARY     15   LAYER   1   ROW     5   COL    12   RATE    -402.591      ET-5
 BOUNDARY     16   LAYER   1   ROW     6   COL    12   RATE    -401.696      ET-6
 BOUNDARY     17   LAYER   1   ROW     7   COL    12   RATE    -302.195      ET-7
 BOUNDARY     18   LAYER   1   ROW     8   COL    12   RATE    -234.789      ET-8
 BOUNDARY     19   LAYER   1   ROW     9   COL    12   RATE    -159.147      ET-9
 BOUNDARY     20   LAYER   1   ROW    10   COL    12   RATE    -46.7935      ET-10
 UBDSV4 SAVING CONSTANT HEADS   ON UNIT   1017 AT TIME STEP      4, STRESS PERIOD      2

 CONSTANT HEADS     PERIOD  2   STEP  4
 BOUNDARY      1   LAYER   1   ROW     1   COL     1   RATE     2643.95      CHD-1
 BOUNDARY      2   LAYER   1   ROW     4   COL     1   RATE     4707.96    
 BOUNDARY      3   LAYER   1   ROW     5   COL     1   RATE     832.911      CHD_GP
 BOUNDARY      4   LAYER   1   ROW     6   COL     1   RATE     4330.58      CHD_GP
 BOUNDARY      5   LAYER   1   ROW    10   COL     1   RATE     1797.75      CHD-10

 HEAD WILL BE SAVED ON UNIT 1018 AT END OF TIME STEP    4, STRESS PERIOD    2
WEL   no.    1 value from time series:  -30000.     for time:  1.800     to  2.000    
WEL   no.    2 value from time series:  -3800.0     for time:  1.800     to  2.000    
RIV   no.    1 value from time series:   102.80     for time:  1.800     to  2.000    
RIV   no.    2 value from time series:   102.80     for time:  1.800     to  2.000    
RIV   no.    3 value from time series:   102.80     for time:  1.800     to  2.000    
RIV   no.    4 value from time series:   102.80     for time:  1.800     to  2.000    
RIV   no.    5 value from time series:   102.80     for time:  1.800     to  2.000    
RIV   no.    6 value from time series:   102.80     for time:  1.800     to  2.000    
RIV   no.    7 value from time series:   102.80     for time:  1.800     to  2.000    
RIV   no.    8 value from time series:   102.80     for time:  1.800     to  2.000    
RIV   no.    9 value from time series:   102.80     for time:  1.800     to  2.000    
RIV   no.   10 value from time series:   102.80     for time:  1.800     to  2.000    
EVT   no.    1 value from time series:   750.94     for time:  1.800     to  2.000    
EVT   no.    2 value from time series:   1501.9     for time:  1.800     to  2.000    
EVT   no.    3 value from time series:   2252.8     for time:  1.800     to  2.000    
EVT   no.    4 value from time series:   3003.8     for time:  1.800     to  2.000    
EVT   no.   10 value from time series:   375.47     for time:  1.800     to  2.000    
EVT   no.   11 value from time series:   750.94     for time:  1.800     to  2.000    
EVT   no.   12 value from time series:   1501.9     for time:  1.800     to  2.000    
EVT   no.   13 value from time series:   2252.8     for time:  1.800     to  2.000    
EVT   no.   14 value from time series:   3003.8     for time:  1.800     to  2.000    
EVT   no.   20 value from time series:   375.47     for time:  1.800     to  2.000    
WEL   no.    1 value from time series:  -30000.     for time:  1.800     to  2.000    
WEL   no.    2 value from time series:  -3800.0     for time:  1.800     to  2.000    
RIV   no.    1 value from time series:   102.80     for time:  1.800     to  2.000    
RIV   no.    2 value from time series:   102.80     for time:  1.800     to  2.000    
RIV   no.    3 value from time series:   102.80     for time:  1.800     to  2.000    
RIV   no.    4 value from time series:   102.80     for time:  1.800     to  2.000    
RIV   no.    5 value from time series:   102.80     for time:  1.800     to  2.000    
RIV   no.    6 value from time series:   102.80     for time:  1.800     to  2.000    
RIV   no.    7 value from time series:   102.80     for time:  1.800     to  2.000    
RIV   no.    8 value from time series:   102.80     for time:  1.800     to  2.000    
RIV   no.    9 value from time series:   102.80     for time:  1.800     to  2.000    
RIV   no.   10 value from time series:   102.80     for time:  1.800     to  2.000    
EVT   no.    1 value from time series:   750.94     for time:  1.800     to  2.000    
EVT   no.    2 value from time series:   1501.9     for time:  1.800     to  2.000    
EVT   no.    3 value from time series:   2252.8     for time:  1.800     to  2.000    
EVT   no.    4 value from time series:   3003.8     for time:  1.800     to  2.000    
EVT   no.   10 value from time series:   375.47     for time:  1.800     to  2.000    
EVT   no.   11 value from time series:   750.94     for time:  1.800     to  2.000    
EVT   no.   12 value from time series:   1501.9     for time:  1.800     to  2.000    
EVT   no.   13 value from time series:   2252.8     for time:  1.800     to  2.000    
EVT   no.   14 value from time series:   3003.8     for time:  1.800     to  2.000    
EVT   no.   20 value from time series:   375.47     for time:  1.800     to  2.000    

 OUTPUT CONTROL FOR STRESS PERIOD    2   TIME STEP    5
    SAVE BUDGET
    SAVE HEAD
    SAVE HEAD FOR ALL LAYERS
 UBDSV1 SAVING      STORAGE(SS) ON UNIT   1017 AT TIME STEP      5, STRESS PERIOD      2
 UBDSV1 SAVING      STORAGE(SY) ON UNIT   1017 AT TIME STEP      5, STRESS PERIOD      2
 UBDSV1 SAVING FLOW RIGHT FACE  ON UNIT   1017 AT TIME STEP      5, STRESS PERIOD      2
 UBDSV1 SAVING FLOW FRONT FACE  ON UNIT   1017 AT TIME STEP      5, STRESS PERIOD      2
 UBDSV1 SAVING FLOW LOWER FACE  ON UNIT   1017 AT TIME STEP      5, STRESS PERIOD      2
 UBDSV4 SAVING WELLS NEAR RIVER ON UNIT   1017 AT TIME STEP      5, STRESS PERIOD      2

 WELLS NEAR RIVER   PERIOD  2   STEP  5
 BOUNDARY      1   LAYER   2   ROW     3   COL     4   RATE    -30000.0      WELL_1
 BOUNDARY      2   LAYER   2   ROW     8   COL     4   RATE    -3800.00      WELL_2
 BOUNDARY      3   LAYER   2   ROW     4   COL     6   RATE   -10.00000    
 BOUNDARY      4   LAYER   2   ROW     5   COL     8   RATE    -20.0000    
 BOUNDARY      5   LAYER   2   ROW     2   COL     9   RATE    -40.0000    
 UBDSV4 SAVING RIVER            ON UNIT   1017 AT TIME STEP      5, STRESS PERIOD      2

 RIVER              PERIOD  2   STEP  5
 BOUNDARY      1   LAYER   1   ROW     1   COL    15   RATE     13941.0    
 BOUNDARY      2   LAYER   1   ROW     2   COL    15   RATE     13958.9      RIV2
 BOUNDARY      3   LAYER   1   ROW     3   COL    15   RATE     13985.8      RIV3
 BOUNDARY      4   LAYER   1   ROW     4   COL    15   RATE     14013.7    
 BOUNDARY      5   LAYER   1   ROW     5   COL    15   RATE     14035.4    
 BOUNDARY      6   LAYER   1   ROW     6   COL    15   RATE     14036.0    
 BOUNDARY      7   LAYER   1   ROW     7   COL    15   RATE     14015.2      RIVX
 BOUNDARY      8   LAYER   1   ROW     8   COL    15   RATE     13984.2      RIVX
 BOUNDARY      9   LAYER   1   ROW     9   COL    15   RATE     13951.8      RIVX
 BOUNDARY     10   LAYER   1   ROW    10   COL    15   RATE     13928.7    

 GHB LAKES          PERIOD  2   STEP  5
 BOUNDARY      1   LAYER   1   ROW     3   COL     1   RATE    -7814.95    
 BOUNDARY      2   LAYER   1   ROW     7   COL     1   RATE     4410.71      GHB2_UPPER
 BOUNDARY      3   LAYER   1   ROW     7   COL     1   RATE    -10970.7      GHB2_LOWER
 UBDSV4 SAVING RECHARGE         ON UNIT   1017 AT TIME STEP      5, STRESS PERIOD      2

 RECHARGE           PERIOD  2   STEP  5
 BOUNDARY      2   LAYER   1   ROW     1   COL     2   RATE     750.000    
 BOUNDARY      3   LAYER   1   ROW     1   COL     3   RATE     750.000    
 BOUNDARY      4   LAYER   1   ROW     1   COL     4   RATE     750.000    
 BOUNDARY      5   LAYER   1   ROW     1   COL     5   RATE     750.000    
 BOUNDARY      6   LAYER   1   ROW     1   COL     6   RATE     750.000    
 BOUNDARY      7   LAYER   1   ROW     1   COL     7   RATE     750.000    
 BOUNDARY      8   LAYER   1   ROW     1   COL     8   RATE     750.000    
 BOUNDARY      9   LAYER   1   ROW     1   COL     9   RATE     750.000    
 BOUNDARY     10   LAYER   1   ROW     1   COL    10   RATE     750.000    
 BOUNDARY     11   LAYER   1   ROW     1   COL    11   RATE     750.000    
 BOUNDARY     12   LAYER   1   ROW     1   COL    12   RATE     750.000    
 BOUNDARY     13   LAYER   1   ROW     1   COL    13   RATE     750.000    
 BOUNDARY     14   LAYER   1   ROW     1   COL    14   RATE     750.000    
 BOUNDARY     15   LAYER   1   ROW     1   COL    15   RATE     750.000    
 BOUNDARY     16   LAYER   1   ROW     2   COL     1   RATE     750.000    
 BOUNDARY     17   LAYER   1   ROW     2   COL     2   RATE     750.000    
 BOUNDARY     18   LAYER   1   ROW     2   COL     3   RATE     750.000    
 BOUNDARY     19   LAYER   1   ROW     2   COL     4   RATE     750.000    
 BOUNDARY     20   LAYER   1   ROW     2   COL     5   RATE     750.000    
 BOUNDARY     21   LAYER   1   ROW     2   COL     6   RATE     750.000    
 BOUNDARY     22   LAYER   1   ROW     2   COL     7   RATE     750.000    
 BOUNDARY     23   LAYER   1   ROW     2   COL     8   RATE     750.000    
 BOUNDARY     24   LAYER   1   ROW     2   COL     9   RATE     750.000    
 BOUNDARY     25   LAYER   1   ROW     2   COL    10   RATE     750.000    
 BOUNDARY     26   LAYER   1   ROW     2   COL    11   RATE     750.000    
 BOUNDARY     27   LAYER   1   ROW     2   COL    12   RATE     750.000    
 BOUNDARY     28   LAYER   1   ROW     2   COL    13   RATE     750.000    
 BOUNDARY     29   LAYER   1   ROW     2   COL    14   RATE     750.000    
 BOUNDARY     30   LAYER   1   ROW     2   COL    15   RATE     750.000    
 BOUNDARY     31   LAYER   1   ROW     3   COL     1   RATE     750.000    
 BOUNDARY     32   LAYER   1   ROW     3   COL     2   RATE     750.000    
 BOUNDARY     33   LAYER   1   ROW     3   COL     3   RATE     750.000    
 BOUNDARY     34   LAYER   1   ROW     3   COL     4   RATE     750.000    
 BOUNDARY     35   LAYER   1   ROW     3   COL     5   RATE     750.000    
 BOUNDARY     36   LAYER   1   ROW     3   COL     6   RATE     750.000    
 BOUNDARY     37   LAYER   1   ROW     3   COL     7   RATE     750.000    
 BOUNDARY     38   LAYER   1   ROW     3   COL     8   RATE     750.000    
 BOUNDARY     39   LAYER   1   ROW     3   COL     9   RATE     750.000    
 BOUNDARY     40   LAYER   1   ROW     3   COL    10   RATE     750.000    
 BOUNDARY     41   LAYER   1   ROW     3   COL    11   RATE     750.000    
 BOUNDARY     42   LAYER   1   ROW     3   COL    12   RATE     750.000    
 BOUNDARY     43   LAYER   1   ROW     3   COL    13   RATE     750.000    
 BOUNDARY     44   LAYER   1   ROW     3   COL    14   RATE     750.000    
 BOUNDARY     45   LAYER   1   ROW     3   COL    15   RATE     750.000    
 BOUNDARY     47   LAYER   1   ROW     4   COL     2   RATE     750.000    
 BOUNDARY     48   LAYER   1   ROW     4   COL     3   RATE     750.000    
 BOUNDARY     49   LAYER   1   ROW     4   COL     4   RATE     750.000    
 BOUNDARY     50   LAYER   1   ROW     4   COL     5   RATE     750.000    
 BOUNDARY     51   LAYER   1   ROW     4   COL     6   RATE     750.000    
 BOUNDARY     52   LAYER   1   ROW     4   COL     7   RATE     750.000    
 BOUNDARY     53   LAYER   1   ROW     4   COL     8   RATE     750.000    
 BOUNDARY     54   LAYER   1   ROW     4   COL     9   RATE     750.000    
 BOUNDARY     55   LAYER   1   ROW     4   COL    10   RATE     750.000    
 BOUNDARY     56   LAYER   1   ROW     4   COL    11   RATE     750.000    
 BOUNDARY     57   LAYER   1   ROW     4   COL    12   RATE     750.000    
 BOUNDARY     58   LAYER   1   ROW     4   COL    13   RATE     750.000    
 BOUNDARY     59   LAYER   1   ROW     4   COL    14   RATE     750.000    
 BOUNDARY     60   LAYER   1   ROW     4   COL    15   RATE     750.000    
 BOUNDARY     62   LAYER   1   ROW     5   COL     2   RATE     750.000    
 BOUNDARY     63   LAYER   1   ROW     5   COL     3   RATE     750.000    
 BOUNDARY     64   LAYER   1   ROW     5   COL     4   RATE     750.000    
 BOUNDARY     65   LAYER   1   ROW     5   COL     5   RATE     750.000    
 BOUNDARY     66   LAYER   1   ROW     5   COL     6   RATE     750.000    
 BOUNDARY     67   LAYER   1   ROW     5   COL     7   RATE     750.000    
 BOUNDARY     68   LAYER   1   ROW     5   COL     8   RATE     750.000    
 BOUNDARY     69   LAYER   1   ROW     5   COL     9   RATE     750.000    
 BOUNDARY     70   LAYER   1   ROW     5   COL    10   RATE     750.000    
 BOUNDARY     71   LAYER   1   ROW     5   COL    11   RATE     750.000    
 BOUNDARY     72   LAYER   1   ROW     5   COL    12   RATE     750.000    
 BOUNDARY     73   LAYER   1   ROW     5   COL    13   RATE     750.000    
 BOUNDARY     74   LAYER   1   ROW     5   COL    14   RATE     750.000    
 BOUNDARY     75   LAYER   1   ROW     5   COL    15   RATE     750.000    
 BOUNDARY     77   LAYER   1   ROW     6   COL     2   RATE     750.000    
 BOUNDARY     78   LAYER   1   ROW     6   COL     3   RATE     750.000    
 BOUNDARY     79   LAYER   1   ROW     6   COL     4   RATE     750.000    
 BOUNDARY     80   LAYER   1   ROW     6   COL     5   RATE     750.000    
 BOUNDARY     81   LAYER   1   ROW     6   COL     6   RATE     750.000    
 BOUNDARY     82   LAYER   1   ROW     6   COL     7   RATE     750.000    
 BOUNDARY     83   LAYER   1   ROW     6   COL     8   RATE     750.000    
 BOUNDARY     84   LAYER   1   ROW     6   COL     9   RATE     750.000    
 BOUNDARY     85   LAYER   1   ROW     6   COL    10   RATE     750.000    
 BOUNDARY     86   LAYER   1   ROW     6   COL    11   RATE     750.000    
 BOUNDARY     87   LAYER   1   ROW     6   COL    12   RATE     750.000    
 BOUNDARY     88   LAYER   1   ROW     6   COL    13   RATE     750.000    
 BOUNDARY     89   LAYER   1   ROW     6   COL    14   RATE     750.000    
 BOUNDARY     90   LAYER   1   ROW     6   COL    15   RATE     750.000    
 BOUNDARY     91   LAYER   1   ROW     7   COL     1   RATE     750.000    
 BOUNDARY     92   LAYER   1   ROW     7   COL     2   RATE     750.000    
 BOUNDARY     93   LAYER   1   ROW     7   COL     3   RATE     750.000    
 BOUNDARY     94   LAYER   1   ROW     7   COL     4   RATE     750.000    
 BOUNDARY     95   LAYER   1   ROW     7   COL     5   RATE     750.000    
 BOUNDARY     96   LAYER   1   ROW     7   COL     6   RATE     750.000    
 BOUNDARY     97   LAYER   1   ROW     7   COL     7   RATE     750.000    
 BOUNDARY     98   LAYER   1   ROW     7   COL     8   RATE     750.000    
 BOUNDARY     99   LAYER   1   ROW     7   COL     9   RATE     750.000    
 BOUNDARY    100   LAYER   1   ROW     7   COL    10   RATE     750.000    
 BOUNDARY    101   LAYER   1   ROW     7   COL    11   RATE     750.000    
 BOUNDARY    102   LAYER   1   ROW     7   COL    12   RATE     750.000    
 BOUNDARY    103   LAYER   1   ROW     7   COL    13   RATE     750.000    
 BOUNDARY    104   LAYER   1   ROW     7   COL    14   RATE     750.000    
 BOUNDARY    105   LAYER   1   ROW     7   COL    15   RATE     750.000    
 BOUNDARY    106   LAYER   1   ROW     8   COL     1   RATE     750.000    
 BOUNDARY    107   LAYER   1   ROW     8   COL     2   RATE     750.000    
 BOUNDARY    108   LAYER   1   ROW     8   COL     3   RATE     750.000    
 BOUNDARY    109   LAYER   1   ROW     8   COL     4   RATE     750.000    
 BOUNDARY    110   LAYER   1   ROW     8   COL     5   RATE     750.000    
 BOUNDARY    111   LAYER   1   ROW     8   COL     6   RATE     750.000    
 BOUNDARY    112   LAYER   1   ROW     8   COL     7   RATE     750.000    
 BOUNDARY    113   LAYER   1   ROW     8   COL     8   RATE     750.000    
 BOUNDARY    114   LAYER   1   ROW     8   COL     9   RATE     750.000    
 BOUNDARY    115   LAYER   1   ROW     8   COL    10   RATE     750.000    
 BOUNDARY    116   LAYER   1   ROW     8   COL    11   RATE     750.000    
 BOUNDARY    117   LAYER   1   ROW     8   COL    12   RATE     750.000    
 BOUNDARY    118   LAYER   1   ROW     8   COL    13   RATE     750.000    
 BOUNDARY    119   LAYER   1   ROW     8   COL    14   RATE     750.000    
 BOUNDARY    120   LAYER   1   ROW     8   COL    15   RATE     750.000    
 BOUNDARY    121   LAYER   1   ROW     9   COL     1   RATE     750.000    
 BOUNDARY    122   LAYER   1   ROW     9   COL     2   RATE     750.000    
 BOUNDARY    123   LAYER   1   ROW     9   COL     3   RATE     750.000    
 BOUNDARY    124   LAYER   1   ROW     9   COL     4   RATE     750.000    
 BOUNDARY    125   LAYER   1   ROW     9   COL     5   RATE     750.000    
 BOUNDARY    126   LAYER   1   ROW     9   COL     6   RATE     750.000    
 BOUNDARY    127   LAYER   1   ROW     9   COL     7   RATE     750.000    
 BOUNDARY    128   LAYER   1   ROW     9   COL     8   RATE     750.000    
 BOUNDARY    129   LAYER   1   ROW     9   COL     9   RATE     750.000    
 BOUNDARY    130   LAYER   1   ROW     9   COL    10   RATE     750.000    
 BOUNDARY    131   LAYER   1   ROW     9   COL    11   RATE     750.000    
 BOUNDARY    132   LAYER   1   ROW     9   COL    12   RATE     750.000    
 BOUNDARY    133   LAYER   1   ROW     9   COL    13   RATE     750.000    
 BOUNDARY    134   LAYER   1   ROW     9   COL    14   RATE     750.000    
 BOUNDARY    135   LAYER   1   ROW     9   COL    15   RATE     750.000    
 BOUNDARY    137   LAYER   1   ROW    10   COL     2   RATE     750.000    
 BOUNDARY    138   LAYER   1   ROW    10   COL     3   RATE     750.000    
 BOUNDARY    139   LAYER   1   ROW    10   COL     4   RATE     750.000    
 BOUNDARY    140   LAYER   1   ROW    10   COL     5   RATE     750.000    
 BOUNDARY    141   LAYER   1   ROW    10   COL     6   RATE     750.000    
 BOUNDARY    142   LAYER   1   ROW    10   COL     7   RATE     750.000    
 BOUNDARY    143   LAYER   1   ROW    10   COL     8   RATE     750.000    
 BOUNDARY    144   LAYER   1   ROW    10   COL     9   RATE     750.000    
 BOUNDARY    145   LAYER   1   ROW    10   COL    10   RATE     750.000    
 BOUNDARY    146   LAYER   1   ROW    10   COL    11   RATE     750.000    
 BOUNDARY    147   LAYER   1   ROW    10   COL    12   RATE     750.000    
 BOUNDARY    148   LAYER   1   ROW    10   COL    13   RATE     750.000    
 BOUNDARY    149   LAYER   1   ROW    10   COL    14   RATE     750.000    
 BOUNDARY    150   LAYER   1   ROW    10   COL    15   RATE     750.000    
 UBDSV4 SAVING ET SEGS          ON UNIT   1017 AT TIME STEP      5, STRESS PERIOD      2

 ET SEGS            PERIOD  2   STEP  5
 BOUNDARY      1   LAYER   1   ROW     1   COL    13   RATE    -57.4391      ET-1
 BOUNDARY      2   LAYER   1   ROW     2   COL    13   RATE    -108.587      ET-2
 BOUNDARY      3   LAYER   1   ROW     3   COL    13   RATE    -150.014      ET-3
 BOUNDARY      4   LAYER   1   ROW     4   COL    13   RATE    -182.306      ET-4
 BOUNDARY      5   LAYER   1   ROW     5   COL    13   RATE    -275.394      ET-5
 BOUNDARY      6   LAYER   1   ROW     6   COL    13   RATE    -274.532      ET-6
 BOUNDARY      7   LAYER   1   ROW     7   COL    13   RATE    -209.884      ET-7
 BOUNDARY      8   LAYER   1   ROW     8   COL    13   RATE    -166.393      ET-8
 BOUNDARY      9   LAYER   1   ROW     9   COL    13   RATE    -110.364      ET-9
 BOUNDARY     10   LAYER   1   ROW    10   COL    13   RATE    -29.7477      ET-10
 BOUNDARY     11   LAYER   1   ROW     1   COL    12   RATE    -87.9567      ET-1
 BOUNDARY     12   LAYER   1   ROW     2   COL    12   RATE    -152.690      ET-2
 BOUNDARY     13   LAYER   1   ROW     3   COL    12   RATE    -211.840      ET-3
 BOUNDARY     14   LAYER   1   ROW     4   COL    12   RATE    -262.196      ET-4
 BOUNDARY     15   LAYER   1   ROW     5   COL    12   RATE    -403.149      ET-5
 BOUNDARY     16   LAYER   1   ROW     6   COL    12   RATE    -402.254      ET-6
 BOUNDARY     17   LAYER   1   ROW     7   COL    12   RATE    -302.586      ET-7
 BOUNDARY     18   LAYER   1   ROW     8   COL    12   RATE    -235.068      ET-8
 BOUNDARY     19   LAYER   1   ROW     9   COL    12   RATE    -159.705      ET-9
 BOUNDARY     20   LAYER   1   ROW    10   COL    12   RATE    -48.0096      ET-10
 UBDSV4 SAVING CONSTANT HEADS   ON UNIT   1017 AT TIME STEP      5, STRESS PERIOD      2

 CONSTANT HEADS     PERIOD  2   STEP  5
 BOUNDARY      1   LAYER   1   ROW     1   COL     1   RATE     2641.32      CHD-1
 BOUNDARY      2   LAYER   1   ROW     4   COL     1   RATE     4706.30    
 BOUNDARY      3   LAYER   1   ROW     5   COL     1   RATE     831.634      CHD_GP
 BOUNDARY      4   LAYER   1   ROW     6   COL     1   RATE     4328.09      CHD_GP
 BOUNDARY      5   LAYER   1   ROW    10   COL     1   RATE     1794.81      CHD-10

 HEAD WILL BE SAVED ON UNIT 1018 AT END OF TIME STEP    5, STRESS PERIOD    2
WEL   no.    1 value from time series:  -30000.     for time:  2.000     to  2.200    
WEL   no.    2 value from time series:  -4200.0     for time:  2.000     to  2.200    
RIV   no.    1 value from time series:   103.20     for time:  2.000     to  2.200    
RIV   no.    2 value from time series:   103.20     for time:  2.000     to  2.200    
RIV   no.    3 value from time series:   103.20     for time:  2.000     to  2.200    
RIV   no.    4 value from time series:   103.20     for time:  2.000     to  2.200    
RIV   no.    5 value from time series:   103.20     for time:  2.000     to  2.200    
RIV   no.    6 value from time series:   103.20     for time:  2.000     to  2.200    
RIV   no.    7 value from time series:   103.20     for time:  2.000     to  2.200    
RIV   no.    8 value from time series:   103.20     for time:  2.000     to  2.200    
RIV   no.    9 value from time series:   103.20     for time:  2.000     to  2.200    
RIV   no.   10 value from time series:   103.20     for time:  2.000     to  2.200    
EVT   no.    1 value from time series:   767.81     for time:  2.000     to  2.200    
EVT   no.    2 value from time series:   1535.6     for time:  2.000     to  2.200    
EVT   no.    3 value from time series:   2303.4     for time:  2.000     to  2.200    
EVT   no.    4 value from time series:   3071.2     for time:  2.000     to  2.200    
EVT   no.   10 value from time series:   383.91     for time:  2.000     to  2.200    
EVT   no.   11 value from time series:   767.81     for time:  2.000     to  2.200    
EVT   no.   12 value from time series:   1535.6     for time:  2.000     to  2.200    
EVT   no.   13 value from time series:   2303.4     for time:  2.000     to  2.200    
EVT   no.   14 value from time series:   3071.2     for time:  2.000     to  2.200    
EVT   no.   20 value from time series:   383.91     for time:  2.000     to  2.200    
WEL   no.    1 value from time series:  -30000.     for time:  2.000     to  2.200    
WEL   no.    2 value from time series:  -4200.0     for time:  2.000     to  2.200    
RIV   no.    1 value from time series:   103.20     for time:  2.000     to  2.200    
RIV   no.    2 value from time series:   103.20     for time:  2.000     to  2.200    
RIV   no.    3 value from time series:   103.20     for time:  2.000     to  2.200    
RIV   no.    4 value from time series:   103.20     for time:  2.000     to  2.200    
RIV   no.    5 value from time series:   103.20     for time:  2.000     to  2.200    
RIV   no.    6 value from time series:   103.20     for time:  2.000     to  2.200    
RIV   no.    7 value from time series:   103.20     for time:  2.000     to  2.200    
RIV   no.    8 value from time series:   103.20     for time:  2.000     to  2.200    
RIV   no.    9 value from time series:   103.20     for time:  2.000     to  2.200    
RIV   no.   10 value from time series:   103.20     for time:  2.000     to  2.200    
EVT   no.    1 value from time series:   767.81     for time:  2.000     to  2.200    
EVT   no.    2 value from time series:   1535.6     for time:  2.000     to  2.200    
EVT   no.    3 value from time series:   2303.4     for time:  2.000     to  2.200    
EVT   no.    4 value from time series:   3071.2     for time:  2.000     to  2.200    
EVT   no.   10 value from time series:   383.91     for time:  2.000     to  2.200    
EVT   no.   11 value from time series:   767.81     for time:  2.000     to  2.200    
EVT   no.   12 value from time series:   1535.6     for time:  2.000     to  2.200    
EVT   no.   13 value from time series:   2303.4     for time:  2.000     to  2.200    
EVT   no.   14 value from time series:   3071.2     for time:  2.000     to  2.200    
EVT   no.   20 value from time series:   383.91     for time:  2.000     to  2.200    

 OUTPUT CONTROL FOR STRESS PERIOD    2   TIME STEP    6
    SAVE BUDGET
    SAVE HEAD
    SAVE HEAD FOR ALL LAYERS
 UBDSV1 SAVING      STORAGE(SS) ON UNIT   1017 AT TIME STEP      6, STRESS PERIOD      2
 UBDSV1 SAVING      STORAGE(SY) ON UNIT   1017 AT TIME STEP      6, STRESS PERIOD      2
 UBDSV1 SAVING FLOW RIGHT FACE  ON UNIT   1017 AT TIME STEP      6, STRESS PERIOD      2
 UBDSV1 SAVING FLOW FRONT FACE  ON UNIT   1017 AT TIME STEP      6, STRESS PERIOD      2
 UBDSV1 SAVING FLOW LOWER FACE  ON UNIT   1017 AT TIME STEP      6, STRESS PERIOD      2
 UBDSV4 SAVING WELLS NEAR RIVER ON UNIT   1017 AT TIME STEP      6, STRESS PERIOD      2

 WELLS NEAR RIVER   PERIOD  2   STEP  6
 BOUNDARY      1   LAYER   2   ROW     3   COL     4   RATE    -30000.0      WELL_1
 BOUNDARY      2   LAYER   2   ROW     8   COL     4   RATE    -4200.00      WELL_2
 BOUNDARY      3   LAYER   2   ROW     4   COL     6   RATE   -10.00000    
 BOUNDARY      4   LAYER   2   ROW     5   COL     8   RATE    -20.0000    
 BOUNDARY      5   LAYER   2   ROW     2   COL     9   RATE    -40.0000    
 UBDSV4 SAVING RIVER            ON UNIT   1017 AT TIME STEP      6, STRESS PERIOD      2

 RIVER              PERIOD  2   STEP  6
 BOUNDARY      1   LAYER   1   ROW     1   COL    15   RATE     16512.5    
 BOUNDARY      2   LAYER   1   ROW     2   COL    15   RATE     16530.4      RIV2
 BOUNDARY      3   LAYER   1   ROW     3   COL    15   RATE     16557.2      RIV3
 BOUNDARY      4   LAYER   1   ROW     4   COL    15   RATE     16585.2    
 BOUNDARY      5   LAYER   1   ROW     5   COL    15   RATE     16606.8    
 BOUNDARY      6   LAYER   1   ROW     6   COL    15   RATE     16607.5    
 BOUNDARY      7   LAYER   1   ROW     7   COL    15   RATE     16586.6      RIVX
 BOUNDARY      8   LAYER   1   ROW     8   COL    15   RATE     16555.6      RIVX
 BOUNDARY      9   LAYER   1   ROW     9   COL    15   RATE     16523.2      RIVX
 BOUNDARY     10   LAYER   1   ROW    10   COL    15   RATE     16500.2    

 GHB LAKES          PERIOD  2   STEP  6
 BOUNDARY      1   LAYER   1   ROW     3   COL     1   RATE    -7822.55    
 BOUNDARY      2   LAYER   1   ROW     7   COL     1   RATE     4403.94      GHB2_UPPER
 BOUNDARY      3   LAYER   1   ROW     7   COL     1   RATE    -10973.1      GHB2_LOWER
 UBDSV4 SAVING RECHARGE         ON UNIT   1017 AT TIME STEP      6, STRESS PERIOD      2

 RECHARGE           PERIOD  2   STEP  6
 BOUNDARY      2   LAYER   1   ROW     1   COL     2   RATE     750.000    
 BOUNDARY      3   LAYER   1   ROW     1   COL     3   RATE     750.000    
 BOUNDARY      4   LAYER   1   ROW     1   COL     4   RATE     750.000    
 BOUNDARY      5   LAYER   1   ROW     1   COL     5   RATE     750.000    
 BOUNDARY      6   LAYER   1   ROW     1   COL     6   RATE     750.000    
 BOUNDARY      7   LAYER   1   ROW     1   COL     7   RATE     750.000    
 BOUNDARY      8   LAYER   1   ROW     1   COL     8   RATE     750.000    
 BOUNDARY      9   LAYER   1   ROW     1   COL     9   RATE     750.000    
 BOUNDARY     10   LAYER   1   ROW     1   COL    10   RATE     750.000    
 BOUNDARY     11   LAYER   1   ROW     1   COL    11   RATE     750.000    
 BOUNDARY     12   LAYER   1   ROW     1   COL    12   RATE     750.000    
 BOUNDARY     13   LAYER   1   ROW     1   COL    13   RATE     750.000    
 BOUNDARY     14   LAYER   1   ROW     1   COL    14   RATE     750.000    
 BOUNDARY     15   LAYER   1   ROW     1   COL    15   RATE     750.000    
 BOUNDARY     16   LAYER   1   ROW     2   COL     1   RATE     750.000    
 BOUNDARY     17   LAYER   1   ROW     2   COL     2   RATE     750.000    
 BOUNDARY     18   LAYER   1   ROW     2   COL     3   RATE     750.000    
 BOUNDARY     19   LAYER   1   ROW     2   COL     4   RATE     750.000    
 BOUNDARY     20   LAYER   1   ROW     2   COL     5   RATE     750.000    
 BOUNDARY     21   LAYER   1   ROW     2   COL     6   RATE     750.000    
 BOUNDARY     22   LAYER   1   ROW     2   COL     7   RATE     750.000    
 BOUNDARY     23   LAYER   1   ROW     2   COL     8   RATE     750.000    
 BOUNDARY     24   LAYER   1   ROW     2   COL     9   RATE     750.000    
 BOUNDARY     25   LAYER   1   ROW     2   COL    10   RATE     750.000    
 BOUNDARY     26   LAYER   1   ROW     2   COL    11   RATE     750.000    
 BOUNDARY     27   LAYER   1   ROW     2   COL    12   RATE     750.000    
 BOUNDARY     28   LAYER   1   ROW     2   COL    13   RATE     750.000    
 BOUNDARY     29   LAYER   1   ROW     2   COL    14   RATE     750.000    
 BOUNDARY     30   LAYER   1   ROW     2   COL    15   RATE     750.000    
 BOUNDARY     31   LAYER   1   ROW     3   COL     1   RATE     750.000    
 BOUNDARY     32   LAYER   1   ROW     3   COL     2   RATE     750.000    
 BOUNDARY     33   LAYER   1   ROW     3   COL     3   RATE     750.000    
 BOUNDARY     34   LAYER   1   ROW     3   COL     4   RATE     750.000    
 BOUNDARY     35   LAYER   1   ROW     3   COL     5   RATE     750.000    
 BOUNDARY     36   LAYER   1   ROW     3   COL     6   RATE     750.000    
 BOUNDARY     37   LAYER   1   ROW     3   COL     7   RATE     750.000    
 BOUNDARY     38   LAYER   1   ROW     3   COL     8   RATE     750.000    
 BOUNDARY     39   LAYER   1   ROW     3   COL     9   RATE     750.000    
 BOUNDARY     40   LAYER   1   ROW     3   COL    10   RATE     750.000    
 BOUNDARY     41   LAYER   1   ROW     3   COL    11   RATE     750.000    
 BOUNDARY     42   LAYER   1   ROW     3   COL    12   RATE     750.000    
 BOUNDARY     43   LAYER   1   ROW     3   COL    13   RATE     750.000    
 BOUNDARY     44   LAYER   1   ROW     3   COL    14   RATE     750.000    
 BOUNDARY     45   LAYER   1   ROW     3   COL    15   RATE     750.000    
 BOUNDARY     47   LAYER   1   ROW     4   COL     2   RATE     750.000    
 BOUNDARY     48   LAYER   1   ROW     4   COL     3   RATE     750.000    
 BOUNDARY     49   LAYER   1   ROW     4   COL     4   RATE     750.000    
 BOUNDARY     50   LAYER   1   ROW     4   COL     5   RATE     750.000    
 BOUNDARY     51   LAYER   1   ROW     4   COL     6   RATE     750.000    
 BOUNDARY     52   LAYER   1   ROW     4   COL     7   RATE     750.000    
 BOUNDARY     53   LAYER   1   ROW     4   COL     8   RATE     750.000    
 BOUNDARY     54   LAYER   1   ROW     4   COL     9   RATE     750.000    
 BOUNDARY     55   LAYER   1   ROW     4   COL    10   RATE     750.000    
 BOUNDARY     56   LAYER   1   ROW     4   COL    11   RATE     750.000    
 BOUNDARY     57   LAYER   1   ROW     4   COL    12   RATE     750.000    
 BOUNDARY     58   LAYER   1   ROW     4   COL    13   RATE     750.000    
 BOUNDARY     59   LAYER   1   ROW     4   COL    14   RATE     750.000    
 BOUNDARY     60   LAYER   1   ROW     4   COL    15   RATE     750.000    
 BOUNDARY     62   LAYER   1   ROW     5   COL     2   RATE     750.000    
 BOUNDARY     63   LAYER   1   ROW     5   COL     3   RATE     750.000    
 BOUNDARY     64   LAYER   1   ROW     5   COL     4   RATE     750.000    
 BOUNDARY     65   LAYER   1   ROW     5   COL     5   RATE     750.000    
 BOUNDARY     66   LAYER   1   ROW     5   COL     6   RATE     750.000    
 BOUNDARY     67   LAYER   1   ROW     5   COL     7   RATE     750.000    
 BOUNDARY     68   LAYER   1   ROW     5   COL     8   RATE     750.000    
 BOUNDARY     69   LAYER   1   ROW     5   COL     9   RATE     750.000    
 BOUNDARY     70   LAYER   1   ROW     5   COL    10   RATE     750.000    
 BOUNDARY     71   LAYER   1   ROW     5   COL    11   RATE     750.000    
 BOUNDARY     72   LAYER   1   ROW     5   COL    12   RATE     750.000    
 BOUNDARY     73   LAYER   1   ROW     5   COL    13   RATE     750.000    
 BOUNDARY     74   LAYER   1   ROW     5   COL    14   RATE     750.000    
 BOUNDARY     75   LAYER   1   ROW     5   COL    15   RATE     750.000    
 BOUNDARY     77   LAYER   1   ROW     6   COL     2   RATE     750.000    
 BOUNDARY     78   LAYER   1   ROW     6   COL     3   RATE     750.000    
 BOUNDARY     79   LAYER   1   ROW     6   COL     4   RATE     750.000    
 BOUNDARY     80   LAYER   1   ROW     6   COL     5   RATE     750.000    
 BOUNDARY     81   LAYER   1   ROW     6   COL     6   RATE     750.000    
 BOUNDARY     82   LAYER   1   ROW     6   COL     7   RATE     750.000    
 BOUNDARY     83   LAYER   1   ROW     6   COL     8   RATE     750.000    
 BOUNDARY     84   LAYER   1   ROW     6   COL     9   RATE     750.000    
 BOUNDARY     85   LAYER   1   ROW     6   COL    10   RATE     750.000    
 BOUNDARY     86   LAYER   1   ROW     6   COL    11   RATE     750.000    
 BOUNDARY     87   LAYER   1   ROW     6   COL    12   RATE     750.000    
 BOUNDARY     88   LAYER   1   ROW     6   COL    13   RATE     750.000    
 BOUNDARY     89   LAYER   1   ROW     6   COL    14   RATE     750.000    
 BOUNDARY     90   LAYER   1   ROW     6   COL    15   RATE     750.000    
 BOUNDARY     91   LAYER   1   ROW     7   COL     1   RATE     750.000    
 BOUNDARY     92   LAYER   1   ROW     7   COL     2   RATE     750.000    
 BOUNDARY     93   LAYER   1   ROW     7   COL     3   RATE     750.000    
 BOUNDARY     94   LAYER   1   ROW     7   COL     4   RATE     750.000    
 BOUNDARY     95   LAYER   1   ROW     7   COL     5   RATE     750.000    
 BOUNDARY     96   LAYER   1   ROW     7   COL     6   RATE     750.000    
 BOUNDARY     97   LAYER   1   ROW     7   COL     7   RATE     750.000    
 BOUNDARY     98   LAYER   1   ROW     7   COL     8   RATE     750.000    
 BOUNDARY     99   LAYER   1   ROW     7   COL     9   RATE     750.000    
 BOUNDARY    100   LAYER   1   ROW     7   COL    10   RATE     750.000    
 BOUNDARY    101   LAYER   1   ROW     7   COL    11   RATE     750.000    
 BOUNDARY    102   LAYER   1   ROW     7   COL    12   RATE     750.000    
 BOUNDARY    103   LAYER   1   ROW     7   COL    13   RATE     750.000    
 BOUNDARY    104   LAYER   1   ROW     7   COL    14   RATE     750.000    
 BOUNDARY    105   LAYER   1   ROW     7   COL    15   RATE     750.000    
 BOUNDARY    106   LAYER   1   ROW     8   COL     1   RATE     750.000    
 BOUNDARY    107   LAYER   1   ROW     8   COL     2   RATE     750.000    
 BOUNDARY    108   LAYER   1   ROW     8   COL     3   RATE     750.000    
 BOUNDARY    109   LAYER   1   ROW     8   COL     4   RATE     750.000    
 BOUNDARY    110   LAYER   1   ROW     8   COL     5   RATE     750.000    
 BOUNDARY    111   LAYER   1   ROW     8   COL     6   RATE     750.000    
 BOUNDARY    112   LAYER   1   ROW     8   COL     7   RATE     750.000    
 BOUNDARY    113   LAYER   1   ROW     8   COL     8   RATE     750.000    
 BOUNDARY    114   LAYER   1   ROW     8   COL     9   RATE     750.000    
 BOUNDARY    115   LAYER   1   ROW     8   COL    10   RATE     750.000    
 BOUNDARY    116   LAYER   1   ROW     8   COL    11   RATE     750.000    
 BOUNDARY    117   LAYER   1   ROW     8   COL    12   RATE     750.000    
 BOUNDARY    118   LAYER   1   ROW     8   COL    13   RATE     750.000    
 BOUNDARY    119   LAYER   1   ROW     8   COL    14   RATE     750.000    
 BOUNDARY    120   LAYER   1   ROW     8   COL    15   RATE     750.000    
 BOUNDARY    121   LAYER   1   ROW     9   COL     1   RATE     750.000    
 BOUNDARY    122   LAYER   1   ROW     9   COL     2   RATE     750.000    
 BOUNDARY    123   LAYER   1   ROW     9   COL     3   RATE     750.000    
 BOUNDARY    124   LAYER   1   ROW     9   COL     4   RATE     750.000    
 BOUNDARY    125   LAYER   1   ROW     9   COL     5   RATE     750.000    
 BOUNDARY    126   LAYER   1   ROW     9   COL     6   RATE     750.000    
 BOUNDARY    127   LAYER   1   ROW     9   COL     7   RATE     750.000    
 BOUNDARY    128   LAYER   1   ROW     9   COL     8   RATE     750.000    
 BOUNDARY    129   LAYER   1   ROW     9   COL     9   RATE     750.000    
 BOUNDARY    130   LAYER   1   ROW     9   COL    10   RATE     750.000    
 BOUNDARY    131   LAYER   1   ROW     9   COL    11   RATE     750.000    
 BOUNDARY    132   LAYER   1   ROW     9   COL    12   RATE     750.000    
 BOUNDARY    133   LAYER   1   ROW     9   COL    13   RATE     750.000    
 BOUNDARY    134   LAYER   1   ROW     9   COL    14   RATE     750.000    
 BOUNDARY    135   LAYER   1   ROW     9   COL    15   RATE     750.000    
 BOUNDARY    137   LAYER   1   ROW    10   COL     2   RATE     750.000    
 BOUNDARY    138   LAYER   1   ROW    10   COL     3   RATE     750.000    
 BOUNDARY    139   LAYER   1   ROW    10   COL     4   RATE     750.000    
 BOUNDARY    140   LAYER   1   ROW    10   COL     5   RATE     750.000    
 BOUNDARY    141   LAYER   1   ROW    10   COL     6   RATE     750.000    
 BOUNDARY    142   LAYER   1   ROW    10   COL     7   RATE     750.000    
 BOUNDARY    143   LAYER   1   ROW    10   COL     8   RATE     750.000    
 BOUNDARY    144   LAYER   1   ROW    10   COL     9   RATE     750.000    
 BOUNDARY    145   LAYER   1   ROW    10   COL    10   RATE     750.000    
 BOUNDARY    146   LAYER   1   ROW    10   COL    11   RATE     750.000    
 BOUNDARY    147   LAYER   1   ROW    10   COL    12   RATE     750.000    
 BOUNDARY    148   LAYER   1   ROW    10   COL    13   RATE     750.000    
 BOUNDARY    149   LAYER   1   ROW    10   COL    14   RATE     750.000    
 BOUNDARY    150   LAYER   1   ROW    10   COL    15   RATE     750.000    
 UBDSV4 SAVING ET SEGS          ON UNIT   1017 AT TIME STEP      6, STRESS PERIOD      2

 ET SEGS            PERIOD  2   STEP  6
 BOUNDARY      1   LAYER   1   ROW     1   COL    13   RATE    -58.8160      ET-1
 BOUNDARY      2   LAYER   1   ROW     2   COL    13   RATE    -111.199      ET-2
 BOUNDARY      3   LAYER   1   ROW     3   COL    13   RATE    -153.644      ET-3
 BOUNDARY      4   LAYER   1   ROW     4   COL    13   RATE    -186.748      ET-4
 BOUNDARY      5   LAYER   1   ROW     5   COL    13   RATE    -275.952      ET-5
 BOUNDARY      6   LAYER   1   ROW     6   COL    13   RATE    -275.089      ET-6
 BOUNDARY      7   LAYER   1   ROW     7   COL    13   RATE    -210.275      ET-7
 BOUNDARY      8   LAYER   1   ROW     8   COL    13   RATE    -166.672      ET-8
 BOUNDARY      9   LAYER   1   ROW     9   COL    13   RATE    -110.532      ET-9
 BOUNDARY     10   LAYER   1   ROW    10   COL    13   RATE    -30.4592      ET-10
 BOUNDARY     11   LAYER   1   ROW     1   COL    12   RATE    -90.2198      ET-1
 BOUNDARY     12   LAYER   1   ROW     2   COL    12   RATE    -156.695      ET-2
 BOUNDARY     13   LAYER   1   ROW     3   COL    12   RATE    -216.859      ET-3
 BOUNDARY     14   LAYER   1   ROW     4   COL    12   RATE    -268.434      ET-4
 BOUNDARY     15   LAYER   1   ROW     5   COL    12   RATE    -403.706      ET-5
 BOUNDARY     16   LAYER   1   ROW     6   COL    12   RATE    -402.811      ET-6
 BOUNDARY     17   LAYER   1   ROW     7   COL    12   RATE    -302.977      ET-7
 BOUNDARY     18   LAYER   1   ROW     8   COL    12   RATE    -235.347      ET-8
 BOUNDARY     19   LAYER   1   ROW     9   COL    12   RATE    -160.262      ET-9
 BOUNDARY     20   LAYER   1   ROW    10   COL    12   RATE    -49.2317      ET-10
 UBDSV4 SAVING CONSTANT HEADS   ON UNIT   1017 AT TIME STEP      6, STRESS PERIOD      2

 CONSTANT HEADS     PERIOD  2   STEP  6
 BOUNDARY      1   LAYER   1   ROW     1   COL     1   RATE     2638.85      CHD-1
 BOUNDARY      2   LAYER   1   ROW     4   COL     1   RATE     4705.00    
 BOUNDARY      3   LAYER   1   ROW     5   COL     1   RATE     830.491      CHD_GP
 BOUNDARY      4   LAYER   1   ROW     6   COL     1   RATE     4325.66      CHD_GP
 BOUNDARY      5   LAYER   1   ROW    10   COL     1   RATE     1791.90      CHD-10

 HEAD WILL BE SAVED ON UNIT 1018 AT END OF TIME STEP    6, STRESS PERIOD    2
WEL   no.    1 value from time series:  -30000.     for time:  2.200     to  2.400    
WEL   no.    2 value from time series:  -4600.0     for time:  2.200     to  2.400    
RIV   no.    1 value from time series:   103.60     for time:  2.200     to  2.400    
RIV   no.    2 value from time series:   103.60     for time:  2.200     to  2.400    
RIV   no.    3 value from time series:   103.60     for time:  2.200     to  2.400    
RIV   no.    4 value from time series:   103.60     for time:  2.200     to  2.400    
RIV   no.    5 value from time series:   103.60     for time:  2.200     to  2.400    
RIV   no.    6 value from time series:   103.60     for time:  2.200     to  2.400    
RIV   no.    7 value from time series:   103.60     for time:  2.200     to  2.400    
RIV   no.    8 value from time series:   103.60     for time:  2.200     to  2.400    
RIV   no.    9 value from time series:   103.60     for time:  2.200     to  2.400    
RIV   no.   10 value from time series:   103.60     for time:  2.200     to  2.400    
EVT   no.    1 value from time series:   784.69     for time:  2.200     to  2.400    
EVT   no.    2 value from time series:   1569.4     for time:  2.200     to  2.400    
EVT   no.    3 value from time series:   2354.1     for time:  2.200     to  2.400    
EVT   no.    4 value from time series:   3138.8     for time:  2.200     to  2.400    
EVT   no.   10 value from time series:   392.34     for time:  2.200     to  2.400    
EVT   no.   11 value from time series:   784.69     for time:  2.200     to  2.400    
EVT   no.   12 value from time series:   1569.4     for time:  2.200     to  2.400    
EVT   no.   13 value from time series:   2354.1     for time:  2.200     to  2.400    
EVT   no.   14 value from time series:   3138.8     for time:  2.200     to  2.400    
EVT   no.   20 value from time series:   392.34     for time:  2.200     to  2.400    
WEL   no.    1 value from time series:  -30000.     for time:  2.200     to  2.400    
WEL   no.    2 value from time series:  -4600.0     for time:  2.200     to  2.400    
RIV   no.    1 value from time series:   103.60     for time:  2.200     to  2.400    
RIV   no.    2 value from time series:   103.60     for time:  2.200     to  2.400    
RIV   no.    3 value from time series:   103.60     for time:  2.200     to  2.400    
RIV   no.    4 value from time series:   103.60     for time:  2.200     to  2.400    
RIV   no.    5 value from time series:   103.60     for time:  2.200     to  2.400    
RIV   no.    6 value from time series:   103.60     for time:  2.200     to  2.400    
RIV   no.    7 value from time series:   103.60     for time:  2.200     to  2.400    
RIV   no.    8 value from time series:   103.60     for time:  2.200     to  2.400    
RIV   no.    9 value from time series:   103.60     for time:  2.200     to  2.400    
RIV   no.   10 value from time series:   103.60     for time:  2.200     to  2.400    
EVT   no.    1 value from time series:   784.69     for time:  2.200     to  2.400    
EVT   no.    2 value from time series:   1569.4     for time:  2.200     to  2.400    
EVT   no.    3 value from time series:   2354.1     for time:  2.200     to  2.400    
EVT   no.    4 value from time series:   3138.8     for time:  2.200     to  2.400    
EVT   no.   10 value from time series:   392.34     for time:  2.200     to  2.400    
EVT   no.   11 value from time series:   784.69     for time:  2.200     to  2.400    
EVT   no.   12 value from time series:   1569.4     for time:  2.200     to  2.400    
EVT   no.   13 value from time series:   2354.1     for time:  2.200     to  2.400    
EVT   no.   14 value from time series:   3138.8     for time:  2.200     to  2.400    
EVT   no.   20 value from time series:   392.34     for time:  2.200     to  2.400    

 OUTPUT CONTROL FOR STRESS PERIOD    2   TIME STEP    7
    SAVE BUDGET
    SAVE HEAD
    SAVE HEAD FOR ALL LAYERS
 UBDSV1 SAVING      STORAGE(SS) ON UNIT   1017 AT TIME STEP      7, STRESS PERIOD      2
 UBDSV1 SAVING      STORAGE(SY) ON UNIT   1017 AT TIME STEP      7, STRESS PERIOD      2
 UBDSV1 SAVING FLOW RIGHT FACE  ON UNIT   1017 AT TIME STEP      7, STRESS PERIOD      2
 UBDSV1 SAVING FLOW FRONT FACE  ON UNIT   1017 AT TIME STEP      7, STRESS PERIOD      2
 UBDSV1 SAVING FLOW LOWER FACE  ON UNIT   1017 AT TIME STEP      7, STRESS PERIOD      2
 UBDSV4 SAVING WELLS NEAR RIVER ON UNIT   1017 AT TIME STEP      7, STRESS PERIOD      2

 WELLS NEAR RIVER   PERIOD  2   STEP  7
 BOUNDARY      1   LAYER   2   ROW     3   COL     4   RATE    -30000.0      WELL_1
 BOUNDARY      2   LAYER   2   ROW     8   COL     4   RATE    -4600.00      WELL_2
 BOUNDARY      3   LAYER   2   ROW     4   COL     6   RATE   -10.00000    
 BOUNDARY      4   LAYER   2   ROW     5   COL     8   RATE    -20.0000    
 BOUNDARY      5   LAYER   2   ROW     2   COL     9   RATE    -40.0000    
 UBDSV4 SAVING RIVER            ON UNIT   1017 AT TIME STEP      7, STRESS PERIOD      2

 RIVER              PERIOD  2   STEP  7
 BOUNDARY      1   LAYER   1   ROW     1   COL    15   RATE     18892.5    
 BOUNDARY      2   LAYER   1   ROW     2   COL    15   RATE     18910.4      RIV2
 BOUNDARY      3   LAYER   1   ROW     3   COL    15   RATE     18937.3      RIV3
 BOUNDARY      4   LAYER   1   ROW     4   COL    15   RATE     18965.2    
 BOUNDARY      5   LAYER   1   ROW     5   COL    15   RATE     18986.9    
 BOUNDARY      6   LAYER   1   ROW     6   COL    15   RATE     18987.5    
 BOUNDARY      7   LAYER   1   ROW     7   COL    15   RATE     18966.7      RIVX
 BOUNDARY      8   LAYER   1   ROW     8   COL    15   RATE     18935.7      RIVX
 BOUNDARY      9   LAYER   1   ROW     9   COL    15   RATE     18903.3      RIVX
 BOUNDARY     10   LAYER   1   ROW    10   COL    15   RATE     18880.2    

 GHB LAKES          PERIOD  2   STEP  7
 BOUNDARY      1   LAYER   1   ROW     3   COL     1   RATE    -7830.03    
 BOUNDARY      2   LAYER   1   ROW     7   COL     1   RATE     4397.28      GHB2_UPPER
 BOUNDARY      3   LAYER   1   ROW     7   COL     1   RATE    -10975.5      GHB2_LOWER
 UBDSV4 SAVING RECHARGE         ON UNIT   1017 AT TIME STEP      7, STRESS PERIOD      2

 RECHARGE           PERIOD  2   STEP  7
 BOUNDARY      2   LAYER   1   ROW     1   COL     2   RATE     750.000    
 BOUNDARY      3   LAYER   1   ROW     1   COL     3   RATE     750.000    
 BOUNDARY      4   LAYER   1   ROW     1   COL     4   RATE     750.000    
 BOUNDARY      5   LAYER   1   ROW     1   COL     5   RATE     750.000    
 BOUNDARY      6   LAYER   1   ROW     1   COL     6   RATE     750.000    
 BOUNDARY      7   LAYER   1   ROW     1   COL     7   RATE     750.000    
 BOUNDARY      8   LAYER   1   ROW     1   COL     8   RATE     750.000    
 BOUNDARY      9   LAYER   1   ROW     1   COL     9   RATE     750.000    
 BOUNDARY     10   LAYER   1   ROW     1   COL    10   RATE     750.000    
 BOUNDARY     11   LAYER   1   ROW     1   COL    11   RATE     750.000    
 BOUNDARY     12   LAYER   1   ROW     1   COL    12   RATE     750.000    
 BOUNDARY     13   LAYER   1   ROW     1   COL    13   RATE     750.000    
 BOUNDARY     14   LAYER   1   ROW     1   COL    14   RATE     750.000    
 BOUNDARY     15   LAYER   1   ROW     1   COL    15   RATE     750.000    
 BOUNDARY     16   LAYER   1   ROW     2   COL     1   RATE     750.000    
 BOUNDARY     17   LAYER   1   ROW     2   COL     2   RATE     750.000    
 BOUNDARY     18   LAYER   1   ROW     2   COL     3   RATE     750.000    
 BOUNDARY     19   LAYER   1   ROW     2   COL     4   RATE     750.000    
 BOUNDARY     20   LAYER   1   ROW     2   COL     5   RATE     750.000    
 BOUNDARY     21   LAYER   1   ROW     2   COL     6   RATE     750.000    
 BOUNDARY     22   LAYER   1   ROW     2   COL     7   RATE     750.000    
 BOUNDARY     23   LAYER   1   ROW     2   COL     8   RATE     750.000    
 BOUNDARY     24   LAYER   1   ROW     2   COL     9   RATE     750.000    
 BOUNDARY     25   LAYER   1   ROW     2   COL    10   RATE     750.000    
 BOUNDARY     26   LAYER   1   ROW     2   COL    11   RATE     750.000    
 BOUNDARY     27   LAYER   1   ROW     2   COL    12   RATE     750.000    
 BOUNDARY     28   LAYER   1   ROW     2   COL    13   RATE     750.000    
 BOUNDARY     29   LAYER   1   ROW     2   COL    14   RATE     750.000    
 BOUNDARY     30   LAYER   1   ROW     2   COL    15   RATE     750.000    
 BOUNDARY     31   LAYER   1   ROW     3   COL     1   RATE     750.000    
 BOUNDARY     32   LAYER   1   ROW     3   COL     2   RATE     750.000    
 BOUNDARY     33   LAYER   1   ROW     3   COL     3   RATE     750.000    
 BOUNDARY     34   LAYER   1   ROW     3   COL     4   RATE     750.000    
 BOUNDARY     35   LAYER   1   ROW     3   COL     5   RATE     750.000    
 BOUNDARY     36   LAYER   1   ROW     3   COL     6   RATE     750.000    
 BOUNDARY     37   LAYER   1   ROW     3   COL     7   RATE     750.000    
 BOUNDARY     38   LAYER   1   ROW     3   COL     8   RATE     750.000    
 BOUNDARY     39   LAYER   1   ROW     3   COL     9   RATE     750.000    
 BOUNDARY     40   LAYER   1   ROW     3   COL    10   RATE     750.000    
 BOUNDARY     41   LAYER   1   ROW     3   COL    11   RATE     750.000    
 BOUNDARY     42   LAYER   1   ROW     3   COL    12   RATE     750.000    
 BOUNDARY     43   LAYER   1   ROW     3   COL    13   RATE     750.000    
 BOUNDARY     44   LAYER   1   ROW     3   COL    14   RATE     750.000    
 BOUNDARY     45   LAYER   1   ROW     3   COL    15   RATE     750.000    
 BOUNDARY     47   LAYER   1   ROW     4   COL     2   RATE     750.000    
 BOUNDARY     48   LAYER   1   ROW     4   COL     3   RATE     750.000    
 BOUNDARY     49   LAYER   1   ROW     4   COL     4   RATE     750.000    
 BOUNDARY     50   LAYER   1   ROW     4   COL     5   RATE     750.000    
 BOUNDARY     51   LAYER   1   ROW     4   COL     6   RATE     750.000    
 BOUNDARY     52   LAYER   1   ROW     4   COL     7   RATE     750.000    
 BOUNDARY     53   LAYER   1   ROW     4   COL     8   RATE     750.000    
 BOUNDARY     54   LAYER   1   ROW     4   COL     9   RATE     750.000    
 BOUNDARY     55   LAYER   1   ROW     4   COL    10   RATE     750.000    
 BOUNDARY     56   LAYER   1   ROW     4   COL    11   RATE     750.000    
 BOUNDARY     57   LAYER   1   ROW     4   COL    12   RATE     750.000    
 BOUNDARY     58   LAYER   1   ROW     4   COL    13   RATE     750.000    
 BOUNDARY     59   LAYER   1   ROW     4   COL    14   RATE     750.000    
 BOUNDARY     60   LAYER   1   ROW     4   COL    15   RATE     750.000    
 BOUNDARY     62   LAYER   1   ROW     5   COL     2   RATE     750.000    
 BOUNDARY     63   LAYER   1   ROW     5   COL     3   RATE     750.000    
 BOUNDARY     64   LAYER   1   ROW     5   COL     4   RATE     750.000    
 BOUNDARY     65   LAYER   1   ROW     5   COL     5   RATE     750.000    
 BOUNDARY     66   LAYER   1   ROW     5   COL     6   RATE     750.000    
 BOUNDARY     67   LAYER   1   ROW     5   COL     7   RATE     750.000    
 BOUNDARY     68   LAYER   1   ROW     5   COL     8   RATE     750.000    
 BOUNDARY     69   LAYER   1   ROW     5   COL     9   RATE     750.000    
 BOUNDARY     70   LAYER   1   ROW     5   COL    10   RATE     750.000    
 BOUNDARY     71   LAYER   1   ROW     5   COL    11   RATE     750.000    
 BOUNDARY     72   LAYER   1   ROW     5   COL    12   RATE     750.000    
 BOUNDARY     73   LAYER   1   ROW     5   COL    13   RATE     750.000    
 BOUNDARY     74   LAYER   1   ROW     5   COL    14   RATE     750.000    
 BOUNDARY     75   LAYER   1   ROW     5   COL    15   RATE     750.000    
 BOUNDARY     77   LAYER   1   ROW     6   COL     2   RATE     750.000    
 BOUNDARY     78   LAYER   1   ROW     6   COL     3   RATE     750.000    
 BOUNDARY     79   LAYER   1   ROW     6   COL     4   RATE     750.000    
 BOUNDARY     80   LAYER   1   ROW     6   COL     5   RATE     750.000    
 BOUNDARY     81   LAYER   1   ROW     6   COL     6   RATE     750.000    
 BOUNDARY     82   LAYER   1   ROW     6   COL     7   RATE     750.000    
 BOUNDARY     83   LAYER   1   ROW     6   COL     8   RATE     750.000    
 BOUNDARY     84   LAYER   1   ROW     6   COL     9   RATE     750.000    
 BOUNDARY     85   LAYER   1   ROW     6   COL    10   RATE     750.000    
 BOUNDARY     86   LAYER   1   ROW     6   COL    11   RATE     750.000    
 BOUNDARY     87   LAYER   1   ROW     6   COL    12   RATE     750.000    
 BOUNDARY     88   LAYER   1   ROW     6   COL    13   RATE     750.000    
 BOUNDARY     89   LAYER   1   ROW     6   COL    14   RATE     750.000    
 BOUNDARY     90   LAYER   1   ROW     6   COL    15   RATE     750.000    
 BOUNDARY     91   LAYER   1   ROW     7   COL     1   RATE     750.000    
 BOUNDARY     92   LAYER   1   ROW     7   COL     2   RATE     750.000    
 BOUNDARY     93   LAYER   1   ROW     7   COL     3   RATE     750.000    
 BOUNDARY     94   LAYER   1   ROW     7   COL     4   RATE     750.000    
 BOUNDARY     95   LAYER   1   ROW     7   COL     5   RATE     750.000    
 BOUNDARY     96   LAYER   1   ROW     7   COL     6   RATE     750.000    
 BOUNDARY     97   LAYER   1   ROW     7   COL     7   RATE     750.000    
 BOUNDARY     98   LAYER   1   ROW     7   COL     8   RATE     750.000    
 BOUNDARY     99   LAYER   1   ROW     7   COL     9   RATE     750.000    
 BOUNDARY    100   LAYER   1   ROW     7   COL    10   RATE     750.000    
 BOUNDARY    101   LAYER   1   ROW     7   COL    11   RATE     750.000    
 BOUNDARY    102   LAYER   1   ROW     7   COL    12   RATE     750.000    
 BOUNDARY    103   LAYER   1   ROW     7   COL    13   RATE     750.000    
 BOUNDARY    104   LAYER   1   ROW     7   COL    14   RATE     750.000    
 BOUNDARY    105   LAYER   1   ROW     7   COL    15   RATE     750.000    
 BOUNDARY    106   LAYER   1   ROW     8   COL     1   RATE     750.000    
 BOUNDARY    107   LAYER   1   ROW     8   COL     2   RATE     750.000    
 BOUNDARY    108   LAYER   1   ROW     8   COL     3   RATE     750.000    
 BOUNDARY    109   LAYER   1   ROW     8   COL     4   RATE     750.000    
 BOUNDARY    110   LAYER   1   ROW     8   COL     5   RATE     750.000    
 BOUNDARY    111   LAYER   1   ROW     8   COL     6   RATE     750.000    
 BOUNDARY    112   LAYER   1   ROW     8   COL     7   RATE     750.000    
 BOUNDARY    113   LAYER   1   ROW     8   COL     8   RATE     750.000    
 BOUNDARY    114   LAYER   1   ROW     8   COL     9   RATE     750.000    
 BOUNDARY    115   LAYER   1   ROW     8   COL    10   RATE     750.000    
 BOUNDARY    116   LAYER   1   ROW     8   COL    11   RATE     750.000    
 BOUNDARY    117   LAYER   1   ROW     8   COL    12   RATE     750.000    
 BOUNDARY    118   LAYER   1   ROW     8   COL    13   RATE     750.000    
 BOUNDARY    119   LAYER   1   ROW     8   COL    14   RATE     750.000    
 BOUNDARY    120   LAYER   1   ROW     8   COL    15   RATE     750.000    
 BOUNDARY    121   LAYER   1   ROW     9   COL     1   RATE     750.000    
 BOUNDARY    122   LAYER   1   ROW     9   COL     2   RATE     750.000    
 BOUNDARY    123   LAYER   1   ROW     9   COL     3   RATE     750.000    
 BOUNDARY    124   LAYER   1   ROW     9   COL     4   RATE     750.000    
 BOUNDARY    125   LAYER   1   ROW     9   COL     5   RATE     750.000    
 BOUNDARY    126   LAYER   1   ROW     9   COL     6   RATE     750.000    
 BOUNDARY    127   LAYER   1   ROW     9   COL     7   RATE     750.000    
 BOUNDARY    128   LAYER   1   ROW     9   COL     8   RATE     750.000    
 BOUNDARY    129   LAYER   1   ROW     9   COL     9   RATE     750.000    
 BOUNDARY    130   LAYER   1   ROW     9   COL    10   RATE     750.000    
 BOUNDARY    131   LAYER   1   ROW     9   COL    11   RATE     750.000    
 BOUNDARY    132   LAYER   1   ROW     9   COL    12   RATE     750.000    
 BOUNDARY    133   LAYER   1   ROW     9   COL    13   RATE     750.000    
 BOUNDARY    134   LAYER   1   ROW     9   COL    14   RATE     750.000    
 BOUNDARY    135   LAYER   1   ROW     9   COL    15   RATE     750.000    
 BOUNDARY    137   LAYER   1   ROW    10   COL     2   RATE     750.000    
 BOUNDARY    138   LAYER   1   ROW    10   COL     3   RATE     750.000    
 BOUNDARY    139   LAYER   1   ROW    10   COL     4   RATE     750.000    
 BOUNDARY    140   LAYER   1   ROW    10   COL     5   RATE     750.000    
 BOUNDARY    141   LAYER   1   ROW    10   COL     6   RATE     750.000    
 BOUNDARY    142   LAYER   1   ROW    10   COL     7   RATE     750.000    
 BOUNDARY    143   LAYER   1   ROW    10   COL     8   RATE     750.000    
 BOUNDARY    144   LAYER   1   ROW    10   COL     9   RATE     750.000    
 BOUNDARY    145   LAYER   1   ROW    10   COL    10   RATE     750.000    
 BOUNDARY    146   LAYER   1   ROW    10   COL    11   RATE     750.000    
 BOUNDARY    147   LAYER   1   ROW    10   COL    12   RATE     750.000    
 BOUNDARY    148   LAYER   1   ROW    10   COL    13   RATE     750.000    
 BOUNDARY    149   LAYER   1   ROW    10   COL    14   RATE     750.000    
 BOUNDARY    150   LAYER   1   ROW    10   COL    15   RATE     750.000    
 UBDSV4 SAVING ET SEGS          ON UNIT   1017 AT TIME STEP      7, STRESS PERIOD      2

 ET SEGS            PERIOD  2   STEP  7
 BOUNDARY      1   LAYER   1   ROW     1   COL    13   RATE    -60.1964      ET-1
 BOUNDARY      2   LAYER   1   ROW     2   COL    13   RATE    -113.819      ET-2
 BOUNDARY      3   LAYER   1   ROW     3   COL    13   RATE    -157.284      ET-3
 BOUNDARY      4   LAYER   1   ROW     4   COL    13   RATE    -191.203      ET-4
 BOUNDARY      5   LAYER   1   ROW     5   COL    13   RATE    -276.509      ET-5
 BOUNDARY      6   LAYER   1   ROW     6   COL    13   RATE    -275.646      ET-6
 BOUNDARY      7   LAYER   1   ROW     7   COL    13   RATE    -210.665      ET-7
 BOUNDARY      8   LAYER   1   ROW     8   COL    13   RATE    -166.951      ET-8
 BOUNDARY      9   LAYER   1   ROW     9   COL    13   RATE    -110.700      ET-9
 BOUNDARY     10   LAYER   1   ROW    10   COL    13   RATE    -31.1725      ET-10
 BOUNDARY     11   LAYER   1   ROW     1   COL    12   RATE    -92.4946      ET-1
 BOUNDARY     12   LAYER   1   ROW     2   COL    12   RATE    -160.721      ET-2
 BOUNDARY     13   LAYER   1   ROW     3   COL    12   RATE    -221.888      ET-3
 BOUNDARY     14   LAYER   1   ROW     4   COL    12   RATE    -274.684      ET-4
 BOUNDARY     15   LAYER   1   ROW     5   COL    12   RATE    -404.263      ET-5
 BOUNDARY     16   LAYER   1   ROW     6   COL    12   RATE    -403.367      ET-6
 BOUNDARY     17   LAYER   1   ROW     7   COL    12   RATE    -303.367      ET-7
 BOUNDARY     18   LAYER   1   ROW     8   COL    12   RATE    -235.626      ET-8
 BOUNDARY     19   LAYER   1   ROW     9   COL    12   RATE    -160.818      ET-9
 BOUNDARY     20   LAYER   1   ROW    10   COL    12   RATE    -50.4598      ET-10
 UBDSV4 SAVING CONSTANT HEADS   ON UNIT   1017 AT TIME STEP      7, STRESS PERIOD      2

 CONSTANT HEADS     PERIOD  2   STEP  7
 BOUNDARY      1   LAYER   1   ROW     1   COL     1   RATE     2636.58      CHD-1
 BOUNDARY      2   LAYER   1   ROW     4   COL     1   RATE     4704.07    
 BOUNDARY      3   LAYER   1   ROW     5   COL     1   RATE     829.506      CHD_GP
 BOUNDARY      4   LAYER   1   ROW     6   COL     1   RATE     4323.31      CHD_GP
 BOUNDARY      5   LAYER   1   ROW    10   COL     1   RATE     1789.01      CHD-10

 HEAD WILL BE SAVED ON UNIT 1018 AT END OF TIME STEP    7, STRESS PERIOD    2
WEL   no.    1 value from time series:  -30000.     for time:  2.400     to  2.600    
WEL   no.    2 value from time series:  -5000.0     for time:  2.400     to  2.600    
RIV   no.    1 value from time series:   104.00     for time:  2.400     to  2.600    
RIV   no.    2 value from time series:   104.00     for time:  2.400     to  2.600    
RIV   no.    3 value from time series:   104.00     for time:  2.400     to  2.600    
RIV   no.    4 value from time series:   104.00     for time:  2.400     to  2.600    
RIV   no.    5 value from time series:   104.00     for time:  2.400     to  2.600    
RIV   no.    6 value from time series:   104.00     for time:  2.400     to  2.600    
RIV   no.    7 value from time series:   104.00     for time:  2.400     to  2.600    
RIV   no.    8 value from time series:   104.00     for time:  2.400     to  2.600    
RIV   no.    9 value from time series:   104.00     for time:  2.400     to  2.600    
RIV   no.   10 value from time series:   104.00     for time:  2.400     to  2.600    
EVT   no.    1 value from time series:   801.56     for time:  2.400     to  2.600    
EVT   no.    2 value from time series:   1603.1     for time:  2.400     to  2.600    
EVT   no.    3 value from time series:   2404.7     for time:  2.400     to  2.600    
EVT   no.    4 value from time series:   3206.2     for time:  2.400     to  2.600    
EVT   no.   10 value from time series:   400.78     for time:  2.400     to  2.600    
EVT   no.   11 value from time series:   801.56     for time:  2.400     to  2.600    
EVT   no.   12 value from time series:   1603.1     for time:  2.400     to  2.600    
EVT   no.   13 value from time series:   2404.7     for time:  2.400     to  2.600    
EVT   no.   14 value from time series:   3206.2     for time:  2.400     to  2.600    
EVT   no.   20 value from time series:   400.78     for time:  2.400     to  2.600    
WEL   no.    1 value from time series:  -30000.     for time:  2.400     to  2.600    
WEL   no.    2 value from time series:  -5000.0     for time:  2.400     to  2.600    
RIV   no.    1 value from time series:   104.00     for time:  2.400     to  2.600    
RIV   no.    2 value from time series:   104.00     for time:  2.400     to  2.600    
RIV   no.    3 value from time series:   104.00     for time:  2.400     to  2.600    
RIV   no.    4 value from time series:   104.00     for time:  2.400     to  2.600    
RIV   no.    5 value from time series:   104.00     for time:  2.400     to  2.600    
RIV   no.    6 value from time series:   104.00     for time:  2.400     to  2.600    
RIV   no.    7 value from time series:   104.00     for time:  2.400     to  2.600    
RIV   no.    8 value from time series:   104.00     for time:  2.400     to  2.600    
RIV   no.    9 value from time series:   104.00     for time:  2.400     to  2.600    
RIV   no.   10 value from time series:   104.00     for time:  2.400     to  2.600    
EVT   no.    1 value from time series:   801.56     for time:  2.400     to  2.600    
EVT   no.    2 value from time series:   1603.1     for time:  2.400     to  2.600    
EVT   no.    3 value from time series:   2404.7     for time:  2.400     to  2.600    
EVT   no.    4 value from time series:   3206.2     for time:  2.400     to  2.600    
EVT   no.   10 value from time series:   400.78     for time:  2.400     to  2.600    
EVT   no.   11 value from time series:   801.56     for time:  2.400     to  2.600    
EVT   no.   12 value from time series:   1603.1     for time:  2.400     to  2.600    
EVT   no.   13 value from time series:   2404.7     for time:  2.400     to  2.600    
EVT   no.   14 value from time series:   3206.2     for time:  2.400     to  2.600    
EVT   no.   20 value from time series:   400.78     for time:  2.400     to  2.600    

 OUTPUT CONTROL FOR STRESS PERIOD    2   TIME STEP    8
    SAVE BUDGET
    SAVE HEAD
    SAVE HEAD FOR ALL LAYERS
 UBDSV1 SAVING      STORAGE(SS) ON UNIT   1017 AT TIME STEP      8, STRESS PERIOD      2
 UBDSV1 SAVING      STORAGE(SY) ON UNIT   1017 AT TIME STEP      8, STRESS PERIOD      2
 UBDSV1 SAVING FLOW RIGHT FACE  ON UNIT   1017 AT TIME STEP      8, STRESS PERIOD      2
 UBDSV1 SAVING FLOW FRONT FACE  ON UNIT   1017 AT TIME STEP      8, STRESS PERIOD      2
 UBDSV1 SAVING FLOW LOWER FACE  ON UNIT   1017 AT TIME STEP      8, STRESS PERIOD      2
 UBDSV4 SAVING WELLS NEAR RIVER ON UNIT   1017 AT TIME STEP      8, STRESS PERIOD      2

 WELLS NEAR RIVER   PERIOD  2   STEP  8
 BOUNDARY      1   LAYER   2   ROW     3   COL     4   RATE    -30000.0      WELL_1
 BOUNDARY      2   LAYER   2   ROW     8   COL     4   RATE    -5000.00      WELL_2
 BOUNDARY      3   LAYER   2   ROW     4   COL     6   RATE   -10.00000    
 BOUNDARY      4   LAYER   2   ROW     5   COL     8   RATE    -20.0000    
 BOUNDARY      5   LAYER   2   ROW     2   COL     9   RATE    -40.0000    
 UBDSV4 SAVING RIVER            ON UNIT   1017 AT TIME STEP      8, STRESS PERIOD      2

 RIVER              PERIOD  2   STEP  8
 BOUNDARY      1   LAYER   1   ROW     1   COL    15   RATE     21095.9    
 BOUNDARY      2   LAYER   1   ROW     2   COL    15   RATE     21113.8      RIV2
 BOUNDARY      3   LAYER   1   ROW     3   COL    15   RATE     21140.7      RIV3
 BOUNDARY      4   LAYER   1   ROW     4   COL    15   RATE     21168.7    
 BOUNDARY      5   LAYER   1   ROW     5   COL    15   RATE     21190.3    
 BOUNDARY      6   LAYER   1   ROW     6   COL    15   RATE     21191.0    
 BOUNDARY      7   LAYER   1   ROW     7   COL    15   RATE     21170.1      RIVX
 BOUNDARY      8   LAYER   1   ROW     8   COL    15   RATE     21139.1      RIVX
 BOUNDARY      9   LAYER   1   ROW     9   COL    15   RATE     21106.7      RIVX
 BOUNDARY     10   LAYER   1   ROW    10   COL    15   RATE     21083.6    

 GHB LAKES          PERIOD  2   STEP  8
 BOUNDARY      1   LAYER   1   ROW     3   COL     1   RATE    -7837.37    
 BOUNDARY      2   LAYER   1   ROW     7   COL     1   RATE     4390.73      GHB2_UPPER
 BOUNDARY      3   LAYER   1   ROW     7   COL     1   RATE    -10977.9      GHB2_LOWER
 UBDSV4 SAVING RECHARGE         ON UNIT   1017 AT TIME STEP      8, STRESS PERIOD      2

 RECHARGE           PERIOD  2   STEP  8
 BOUNDARY      2   LAYER   1   ROW     1   COL     2   RATE     750.000    
 BOUNDARY      3   LAYER   1   ROW     1   COL     3   RATE     750.000    
 BOUNDARY      4   LAYER   1   ROW     1   COL     4   RATE     750.000    
 BOUNDARY      5   LAYER   1   ROW     1   COL     5   RATE     750.000    
 BOUNDARY      6   LAYER   1   ROW     1   COL     6   RATE     750.000    
 BOUNDARY      7   LAYER   1   ROW     1   COL     7   RATE     750.000    
 BOUNDARY      8   LAYER   1   ROW     1   COL     8   RATE     750.000    
 BOUNDARY      9   LAYER   1   ROW     1   COL     9   RATE     750.000    
 BOUNDARY     10   LAYER   1   ROW     1   COL    10   RATE     750.000    
 BOUNDARY     11   LAYER   1   ROW     1   COL    11   RATE     750.000    
 BOUNDARY     12   LAYER   1   ROW     1   COL    12   RATE     750.000    
 BOUNDARY     13   LAYER   1   ROW     1   COL    13   RATE     750.000    
 BOUNDARY     14   LAYER   1   ROW     1   COL    14   RATE     750.000    
 BOUNDARY     15   LAYER   1   ROW     1   COL    15   RATE     750.000    
 BOUNDARY     16   LAYER   1   ROW     2   COL     1   RATE     750.000    
 BOUNDARY     17   LAYER   1   ROW     2   COL     2   RATE     750.000    
 BOUNDARY     18   LAYER   1   ROW     2   COL     3   RATE     750.000    
 BOUNDARY     19   LAYER   1   ROW     2   COL     4   RATE     750.000    
 BOUNDARY     20   LAYER   1   ROW     2   COL     5   RATE     750.000    
 BOUNDARY     21   LAYER   1   ROW     2   COL     6   RATE     750.000    
 BOUNDARY     22   LAYER   1   ROW     2   COL     7   RATE     750.000    
 BOUNDARY     23   LAYER   1   ROW     2   COL     8   RATE     750.000    
 BOUNDARY     24   LAYER   1   ROW     2   COL     9   RATE     750.000    
 BOUNDARY     25   LAYER   1   ROW     2   COL    10   RATE     750.000    
 BOUNDARY     26   LAYER   1   ROW     2   COL    11   RATE     750.000    
 BOUNDARY     27   LAYER   1   ROW     2   COL    12   RATE     750.000    
 BOUNDARY     28   LAYER   1   ROW     2   COL    13   RATE     750.000    
 BOUNDARY     29   LAYER   1   ROW     2   COL    14   RATE     750.000    
 BOUNDARY     30   LAYER   1   ROW     2   COL    15   RATE     750.000    
 BOUNDARY     31   LAYER   1   ROW     3   COL     1   RATE     750.000    
 BOUNDARY     32   LAYER   1   ROW     3   COL     2   RATE     750.000    
 BOUNDARY     33   LAYER   1   ROW     3   COL     3   RATE     750.000    
 BOUNDARY     34   LAYER   1   ROW     3   COL     4   RATE     750.000    
 BOUNDARY     35   LAYER   1   ROW     3   COL     5   RATE     750.000    
 BOUNDARY     36   LAYER   1   ROW     3   COL     6   RATE     750.000    
 BOUNDARY     37   LAYER   1   ROW     3   COL     7   RATE     750.000    
 BOUNDARY     38   LAYER   1   ROW     3   COL     8   RATE     750.000    
 BOUNDARY     39   LAYER   1   ROW     3   COL     9   RATE     750.000    
 BOUNDARY     40   LAYER   1   ROW     3   COL    10   RATE     750.000    
 BOUNDARY     41   LAYER   1   ROW     3   COL    11   RATE     750.000    
 BOUNDARY     42   LAYER   1   ROW     3   COL    12   RATE     750.000    
 BOUNDARY     43   LAYER   1   ROW     3   COL    13   RATE     750.000    
 BOUNDARY     44   LAYER   1   ROW     3   COL    14   RATE     750.000    
 BOUNDARY     45   LAYER   1   ROW     3   COL    15   RATE     750.000    
 BOUNDARY     47   LAYER   1   ROW     4   COL     2   RATE     750.000    
 BOUNDARY     48   LAYER   1   ROW     4   COL     3   RATE     750.000    
 BOUNDARY     49   LAYER   1   ROW     4   COL     4   RATE     750.000    
 BOUNDARY     50   LAYER   1   ROW     4   COL     5   RATE     750.000    
 BOUNDARY     51   LAYER   1   ROW     4   COL     6   RATE     750.000    
 BOUNDARY     52   LAYER   1   ROW     4   COL     7   RATE     750.000    
 BOUNDARY     53   LAYER   1   ROW     4   COL     8   RATE     750.000    
 BOUNDARY     54   LAYER   1   ROW     4   COL     9   RATE     750.000    
 BOUNDARY     55   LAYER   1   ROW     4   COL    10   RATE     750.000    
 BOUNDARY     56   LAYER   1   ROW     4   COL    11   RATE     750.000    
 BOUNDARY     57   LAYER   1   ROW     4   COL    12   RATE     750.000    
 BOUNDARY     58   LAYER   1   ROW     4   COL    13   RATE     750.000    
 BOUNDARY     59   LAYER   1   ROW     4   COL    14   RATE     750.000    
 BOUNDARY     60   LAYER   1   ROW     4   COL    15   RATE     750.000    
 BOUNDARY     62   LAYER   1   ROW     5   COL     2   RATE     750.000    
 BOUNDARY     63   LAYER   1   ROW     5   COL     3   RATE     750.000    
 BOUNDARY     64   LAYER   1   ROW     5   COL     4   RATE     750.000    
 BOUNDARY     65   LAYER   1   ROW     5   COL     5   RATE     750.000    
 BOUNDARY     66   LAYER   1   ROW     5   COL     6   RATE     750.000    
 BOUNDARY     67   LAYER   1   ROW     5   COL     7   RATE     750.000    
 BOUNDARY     68   LAYER   1   ROW     5   COL     8   RATE     750.000    
 BOUNDARY     69   LAYER   1   ROW     5   COL     9   RATE     750.000    
 BOUNDARY     70   LAYER   1   ROW     5   COL    10   RATE     750.000    
 BOUNDARY     71   LAYER   1   ROW     5   COL    11   RATE     750.000    
 BOUNDARY     72   LAYER   1   ROW     5   COL    12   RATE     750.000    
 BOUNDARY     73   LAYER   1   ROW     5   COL    13   RATE     750.000    
 BOUNDARY     74   LAYER   1   ROW     5   COL    14   RATE     750.000    
 BOUNDARY     75   LAYER   1   ROW     5   COL    15   RATE     750.000    
 BOUNDARY     77   LAYER   1   ROW     6   COL     2   RATE     750.000    
 BOUNDARY     78   LAYER   1   ROW     6   COL     3   RATE     750.000    
 BOUNDARY     79   LAYER   1   ROW     6   COL     4   RATE     750.000    
 BOUNDARY     80   LAYER   1   ROW     6   COL     5   RATE     750.000    
 BOUNDARY     81   LAYER   1   ROW     6   COL     6   RATE     750.000    
 BOUNDARY     82   LAYER   1   ROW     6   COL     7   RATE     750.000    
 BOUNDARY     83   LAYER   1   ROW     6   COL     8   RATE     750.000    
 BOUNDARY     84   LAYER   1   ROW     6   COL     9   RATE     750.000    
 BOUNDARY     85   LAYER   1   ROW     6   COL    10   RATE     750.000    
 BOUNDARY     86   LAYER   1   ROW     6   COL    11   RATE     750.000    
 BOUNDARY     87   LAYER   1   ROW     6   COL    12   RATE     750.000    
 BOUNDARY     88   LAYER   1   ROW     6   COL    13   RATE     750.000    
 BOUNDARY     89   LAYER   1   ROW     6   COL    14   RATE     750.000    
 BOUNDARY     90   LAYER   1   ROW     6   COL    15   RATE     750.000    
 BOUNDARY     91   LAYER   1   ROW     7   COL     1   RATE     750.000    
 BOUNDARY     92   LAYER   1   ROW     7   COL     2   RATE     750.000    
 BOUNDARY     93   LAYER   1   ROW     7   COL     3   RATE     750.000    
 BOUNDARY     94   LAYER   1   ROW     7   COL     4   RATE     750.000    
 BOUNDARY     95   LAYER   1   ROW     7   COL     5   RATE     750.000    
 BOUNDARY     96   LAYER   1   ROW     7   COL     6   RATE     750.000    
 BOUNDARY     97   LAYER   1   ROW     7   COL     7   RATE     750.000    
 BOUNDARY     98   LAYER   1   ROW     7   COL     8   RATE     750.000    
 BOUNDARY     99   LAYER   1   ROW     7   COL     9   RATE     750.000    
 BOUNDARY    100   LAYER   1   ROW     7   COL    10   RATE     750.000    
 BOUNDARY    101   LAYER   1   ROW     7   COL    11   RATE     750.000    
 BOUNDARY    102   LAYER   1   ROW     7   COL    12   RATE     750.000    
 BOUNDARY    103   LAYER   1   ROW     7   COL    13   RATE     750.000    
 BOUNDARY    104   LAYER   1   ROW     7   COL    14   RATE     750.000    
 BOUNDARY    105   LAYER   1   ROW     7   COL    15   RATE     750.000    
 BOUNDARY    106   LAYER   1   ROW     8   COL     1   RATE     750.000    
 BOUNDARY    107   LAYER   1   ROW     8   COL     2   RATE     750.000    
 BOUNDARY    108   LAYER   1   ROW     8   COL     3   RATE     750.000    
 BOUNDARY    109   LAYER   1   ROW     8   COL     4   RATE     750.000    
 BOUNDARY    110   LAYER   1   ROW     8   COL     5   RATE     750.000    
 BOUNDARY    111   LAYER   1   ROW     8   COL     6   RATE     750.000    
 BOUNDARY    112   LAYER   1   ROW     8   COL     7   RATE     750.000    
 BOUNDARY    113   LAYER   1   ROW     8   COL     8   RATE     750.000    
 BOUNDARY    114   LAYER   1   ROW     8   COL     9   RATE     750.000    
 BOUNDARY    115   LAYER   1   ROW     8   COL    10   RATE     750.000    
 BOUNDARY    116   LAYER   1   ROW     8   COL    11   RATE     750.000    
 BOUNDARY    117   LAYER   1   ROW     8   COL    12   RATE     750.000    
 BOUNDARY    118   LAYER   1   ROW     8   COL    13   RATE     750.000    
 BOUNDARY    119   LAYER   1   ROW     8   COL    14   RATE     750.000    
 BOUNDARY    120   LAYER   1   ROW     8   COL    15   RATE     750.000    
 BOUNDARY    121   LAYER   1   ROW     9   COL     1   RATE     750.000    
 BOUNDARY    122   LAYER   1   ROW     9   COL     2   RATE     750.000    
 BOUNDARY    123   LAYER   1   ROW     9   COL     3   RATE     750.000    
 BOUNDARY    124   LAYER   1   ROW     9   COL     4   RATE     750.000    
 BOUNDARY    125   LAYER   1   ROW     9   COL     5   RATE     750.000    
 BOUNDARY    126   LAYER   1   ROW     9   COL     6   RATE     750.000    
 BOUNDARY    127   LAYER   1   ROW     9   COL     7   RATE     750.000    
 BOUNDARY    128   LAYER   1   ROW     9   COL     8   RATE     750.000    
 BOUNDARY    129   LAYER   1   ROW     9   COL     9   RATE     750.000    
 BOUNDARY    130   LAYER   1   ROW     9   COL    10   RATE     750.000    
 BOUNDARY    131   LAYER   1   ROW     9   COL    11   RATE     750.000    
 BOUNDARY    132   LAYER   1   ROW     9   COL    12   RATE     750.000    
 BOUNDARY    133   LAYER   1   ROW     9   COL    13   RATE     750.000    
 BOUNDARY    134   LAYER   1   ROW     9   COL    14   RATE     750.000    
 BOUNDARY    135   LAYER   1   ROW     9   COL    15   RATE     750.000    
 BOUNDARY    137   LAYER   1   ROW    10   COL     2   RATE     750.000    
 BOUNDARY    138   LAYER   1   ROW    10   COL     3   RATE     750.000    
 BOUNDARY    139   LAYER   1   ROW    10   COL     4   RATE     750.000    
 BOUNDARY    140   LAYER   1   ROW    10   COL     5   RATE     750.000    
 BOUNDARY    141   LAYER   1   ROW    10   COL     6   RATE     750.000    
 BOUNDARY    142   LAYER   1   ROW    10   COL     7   RATE     750.000    
 BOUNDARY    143   LAYER   1   ROW    10   COL     8   RATE     750.000    
 BOUNDARY    144   LAYER   1   ROW    10   COL     9   RATE     750.000    
 BOUNDARY    145   LAYER   1   ROW    10   COL    10   RATE     750.000    
 BOUNDARY    146   LAYER   1   ROW    10   COL    11   RATE     750.000    
 BOUNDARY    147   LAYER   1   ROW    10   COL    12   RATE     750.000    
 BOUNDARY    148   LAYER   1   ROW    10   COL    13   RATE     750.000    
 BOUNDARY    149   LAYER   1   ROW    10   COL    14   RATE     750.000    
 BOUNDARY    150   LAYER   1   ROW    10   COL    15   RATE     750.000    
 UBDSV4 SAVING ET SEGS          ON UNIT   1017 AT TIME STEP      8, STRESS PERIOD      2

 ET SEGS            PERIOD  2   STEP  8
 BOUNDARY      1   LAYER   1   ROW     1   COL    13   RATE    -61.5805      ET-1
 BOUNDARY      2   LAYER   1   ROW     2   COL    13   RATE    -116.445      ET-2
 BOUNDARY      3   LAYER   1   ROW     3   COL    13   RATE    -160.934      ET-3
 BOUNDARY      4   LAYER   1   ROW     4   COL    13   RATE    -195.670      ET-4
 BOUNDARY      5   LAYER   1   ROW     5   COL    13   RATE    -277.066      ET-5
 BOUNDARY      6   LAYER   1   ROW     6   COL    13   RATE    -276.203      ET-6
 BOUNDARY      7   LAYER   1   ROW     7   COL    13   RATE    -211.056      ET-7
 BOUNDARY      8   LAYER   1   ROW     8   COL    13   RATE    -167.230      ET-8
 BOUNDARY      9   LAYER   1   ROW     9   COL    13   RATE    -110.867      ET-9
 BOUNDARY     10   LAYER   1   ROW    10   COL    13   RATE    -31.8877      ET-10
 BOUNDARY     11   LAYER   1   ROW     1   COL    12   RATE    -94.7809      ET-1
 BOUNDARY     12   LAYER   1   ROW     2   COL    12   RATE    -164.769      ET-2
 BOUNDARY     13   LAYER   1   ROW     3   COL    12   RATE    -226.927      ET-3
 BOUNDARY     14   LAYER   1   ROW     4   COL    12   RATE    -280.946      ET-4
 BOUNDARY     15   LAYER   1   ROW     5   COL    12   RATE    -404.819      ET-5
 BOUNDARY     16   LAYER   1   ROW     6   COL    12   RATE    -403.923      ET-6
 BOUNDARY     17   LAYER   1   ROW     7   COL    12   RATE    -303.757      ET-7
 BOUNDARY     18   LAYER   1   ROW     8   COL    12   RATE    -235.905      ET-8
 BOUNDARY     19   LAYER   1   ROW     9   COL    12   RATE    -161.374      ET-9
 BOUNDARY     20   LAYER   1   ROW    10   COL    12   RATE    -51.6940      ET-10
 UBDSV4 SAVING CONSTANT HEADS   ON UNIT   1017 AT TIME STEP      8, STRESS PERIOD      2

 CONSTANT HEADS     PERIOD  2   STEP  8
 BOUNDARY      1   LAYER   1   ROW     1   COL     1   RATE     2634.54      CHD-1
 BOUNDARY      2   LAYER   1   ROW     4   COL     1   RATE     4703.49    
 BOUNDARY      3   LAYER   1   ROW     5   COL     1   RATE     828.693      CHD_GP
 BOUNDARY      4   LAYER   1   ROW     6   COL     1   RATE     4321.06      CHD_GP
 BOUNDARY      5   LAYER   1   ROW    10   COL     1   RATE     1786.17      CHD-10

 HEAD WILL BE SAVED ON UNIT 1018 AT END OF TIME STEP    8, STRESS PERIOD    2
WEL   no.    1 value from time series:  -30000.     for time:  2.600     to  2.800    
WEL   no.    2 value from time series:  -5400.0     for time:  2.600     to  2.800    
RIV   no.    1 value from time series:   104.40     for time:  2.600     to  2.800    
RIV   no.    2 value from time series:   104.40     for time:  2.600     to  2.800    
RIV   no.    3 value from time series:   104.40     for time:  2.600     to  2.800    
RIV   no.    4 value from time series:   104.40     for time:  2.600     to  2.800    
RIV   no.    5 value from time series:   104.40     for time:  2.600     to  2.800    
RIV   no.    6 value from time series:   104.40     for time:  2.600     to  2.800    
RIV   no.    7 value from time series:   104.40     for time:  2.600     to  2.800    
RIV   no.    8 value from time series:   104.40     for time:  2.600     to  2.800    
RIV   no.    9 value from time series:   104.40     for time:  2.600     to  2.800    
RIV   no.   10 value from time series:   104.40     for time:  2.600     to  2.800    
EVT   no.    1 value from time series:   818.44     for time:  2.600     to  2.800    
EVT   no.    2 value from time series:   1636.9     for time:  2.600     to  2.800    
EVT   no.    3 value from time series:   2455.3     for time:  2.600     to  2.800    
EVT   no.    4 value from time series:   3273.8     for time:  2.600     to  2.800    
EVT   no.   10 value from time series:   409.22     for time:  2.600     to  2.800    
EVT   no.   11 value from time series:   818.44     for time:  2.600     to  2.800    
EVT   no.   12 value from time series:   1636.9     for time:  2.600     to  2.800    
EVT   no.   13 value from time series:   2455.3     for time:  2.600     to  2.800    
EVT   no.   14 value from time series:   3273.8     for time:  2.600     to  2.800    
EVT   no.   20 value from time series:   409.22     for time:  2.600     to  2.800    
WEL   no.    1 value from time series:  -30000.     for time:  2.600     to  2.800    
WEL   no.    2 value from time series:  -5400.0     for time:  2.600     to  2.800    
RIV   no.    1 value from time series:   104.40     for time:  2.600     to  2.800    
RIV   no.    2 value from time series:   104.40     for time:  2.600     to  2.800    
RIV   no.    3 value from time series:   104.40     for time:  2.600     to  2.800    
RIV   no.    4 value from time series:   104.40     for time:  2.600     to  2.800    
RIV   no.    5 value from time series:   104.40     for time:  2.600     to  2.800    
RIV   no.    6 value from time series:   104.40     for time:  2.600     to  2.800    
RIV   no.    7 value from time series:   104.40     for time:  2.600     to  2.800    
RIV   no.    8 value from time series:   104.40     for time:  2.600     to  2.800    
RIV   no.    9 value from time series:   104.40     for time:  2.600     to  2.800    
RIV   no.   10 value from time series:   104.40     for time:  2.600     to  2.800    
EVT   no.    1 value from time series:   818.44     for time:  2.600     to  2.800    
EVT   no.    2 value from time series:   1636.9     for time:  2.600     to  2.800    
EVT   no.    3 value from time series:   2455.3     for time:  2.600     to  2.800    
EVT   no.    4 value from time series:   3273.8     for time:  2.600     to  2.800    
EVT   no.   10 value from time series:   409.22     for time:  2.600     to  2.800    
EVT   no.   11 value from time series:   818.44     for time:  2.600     to  2.800    
EVT   no.   12 value from time series:   1636.9     for time:  2.600     to  2.800    
EVT   no.   13 value from time series:   2455.3     for time:  2.600     to  2.800    
EVT   no.   14 value from time series:   3273.8     for time:  2.600     to  2.800    
EVT   no.   20 value from time series:   409.22     for time:  2.600     to  2.800    

 OUTPUT CONTROL FOR STRESS PERIOD    2   TIME STEP    9
    SAVE BUDGET
    SAVE HEAD
    SAVE HEAD FOR ALL LAYERS
 UBDSV1 SAVING      STORAGE(SS) ON UNIT   1017 AT TIME STEP      9, STRESS PERIOD      2
 UBDSV1 SAVING      STORAGE(SY) ON UNIT   1017 AT TIME STEP      9, STRESS PERIOD      2
 UBDSV1 SAVING FLOW RIGHT FACE  ON UNIT   1017 AT TIME STEP      9, STRESS PERIOD      2
 UBDSV1 SAVING FLOW FRONT FACE  ON UNIT   1017 AT TIME STEP      9, STRESS PERIOD      2
 UBDSV1 SAVING FLOW LOWER FACE  ON UNIT   1017 AT TIME STEP      9, STRESS PERIOD      2
 UBDSV4 SAVING WELLS NEAR RIVER ON UNIT   1017 AT TIME STEP      9, STRESS PERIOD      2

 WELLS NEAR RIVER   PERIOD  2   STEP  9
 BOUNDARY      1   LAYER   2   ROW     3   COL     4   RATE    -30000.0      WELL_1
 BOUNDARY      2   LAYER   2   ROW     8   COL     4   RATE    -5400.00      WELL_2
 BOUNDARY      3   LAYER   2   ROW     4   COL     6   RATE   -10.00000    
 BOUNDARY      4   LAYER   2   ROW     5   COL     8   RATE    -20.0000    
 BOUNDARY      5   LAYER   2   ROW     2   COL     9   RATE    -40.0000    
 UBDSV4 SAVING RIVER            ON UNIT   1017 AT TIME STEP      9, STRESS PERIOD      2

 RIVER              PERIOD  2   STEP  9
 BOUNDARY      1   LAYER   1   ROW     1   COL    15   RATE     23136.3    
 BOUNDARY      2   LAYER   1   ROW     2   COL    15   RATE     23154.2      RIV2
 BOUNDARY      3   LAYER   1   ROW     3   COL    15   RATE     23181.1      RIV3
 BOUNDARY      4   LAYER   1   ROW     4   COL    15   RATE     23209.1    
 BOUNDARY      5   LAYER   1   ROW     5   COL    15   RATE     23230.7    
 BOUNDARY      6   LAYER   1   ROW     6   COL    15   RATE     23231.4    
 BOUNDARY      7   LAYER   1   ROW     7   COL    15   RATE     23210.5      RIVX
 BOUNDARY      8   LAYER   1   ROW     8   COL    15   RATE     23179.5      RIVX
 BOUNDARY      9   LAYER   1   ROW     9   COL    15   RATE     23147.1      RIVX
 BOUNDARY     10   LAYER   1   ROW    10   COL    15   RATE     23124.0    

 GHB LAKES          PERIOD  2   STEP  9
 BOUNDARY      1   LAYER   1   ROW     3   COL     1   RATE    -7844.57    
 BOUNDARY      2   LAYER   1   ROW     7   COL     1   RATE     4384.29      GHB2_UPPER
 BOUNDARY      3   LAYER   1   ROW     7   COL     1   RATE    -10980.2      GHB2_LOWER
 UBDSV4 SAVING RECHARGE         ON UNIT   1017 AT TIME STEP      9, STRESS PERIOD      2

 RECHARGE           PERIOD  2   STEP  9
 BOUNDARY      2   LAYER   1   ROW     1   COL     2   RATE     750.000    
 BOUNDARY      3   LAYER   1   ROW     1   COL     3   RATE     750.000    
 BOUNDARY      4   LAYER   1   ROW     1   COL     4   RATE     750.000    
 BOUNDARY      5   LAYER   1   ROW     1   COL     5   RATE     750.000    
 BOUNDARY      6   LAYER   1   ROW     1   COL     6   RATE     750.000    
 BOUNDARY      7   LAYER   1   ROW     1   COL     7   RATE     750.000    
 BOUNDARY      8   LAYER   1   ROW     1   COL     8   RATE     750.000    
 BOUNDARY      9   LAYER   1   ROW     1   COL     9   RATE     750.000    
 BOUNDARY     10   LAYER   1   ROW     1   COL    10   RATE     750.000    
 BOUNDARY     11   LAYER   1   ROW     1   COL    11   RATE     750.000    
 BOUNDARY     12   LAYER   1   ROW     1   COL    12   RATE     750.000    
 BOUNDARY     13   LAYER   1   ROW     1   COL    13   RATE     750.000    
 BOUNDARY     14   LAYER   1   ROW     1   COL    14   RATE     750.000    
 BOUNDARY     15   LAYER   1   ROW     1   COL    15   RATE     750.000    
 BOUNDARY     16   LAYER   1   ROW     2   COL     1   RATE     750.000    
 BOUNDARY     17   LAYER   1   ROW     2   COL     2   RATE     750.000    
 BOUNDARY     18   LAYER   1   ROW     2   COL     3   RATE     750.000    
 BOUNDARY     19   LAYER   1   ROW     2   COL     4   RATE     750.000    
 BOUNDARY     20   LAYER   1   ROW     2   COL     5   RATE     750.000    
 BOUNDARY     21   LAYER   1   ROW     2   COL     6   RATE     750.000    
 BOUNDARY     22   LAYER   1   ROW     2   COL     7   RATE     750.000    
 BOUNDARY     23   LAYER   1   ROW     2   COL     8   RATE     750.000    
 BOUNDARY     24   LAYER   1   ROW     2   COL     9   RATE     750.000    
 BOUNDARY     25   LAYER   1   ROW     2   COL    10   RATE     750.000    
 BOUNDARY     26   LAYER   1   ROW     2   COL    11   RATE     750.000    
 BOUNDARY     27   LAYER   1   ROW     2   COL    12   RATE     750.000    
 BOUNDARY     28   LAYER   1   ROW     2   COL    13   RATE     750.000    
 BOUNDARY     29   LAYER   1   ROW     2   COL    14   RATE     750.000    
 BOUNDARY     30   LAYER   1   ROW     2   COL    15   RATE     750.000    
 BOUNDARY     31   LAYER   1   ROW     3   COL     1   RATE     750.000    
 BOUNDARY     32   LAYER   1   ROW     3   COL     2   RATE     750.000    
 BOUNDARY     33   LAYER   1   ROW     3   COL     3   RATE     750.000    
 BOUNDARY     34   LAYER   1   ROW     3   COL     4   RATE     750.000    
 BOUNDARY     35   LAYER   1   ROW     3   COL     5   RATE     750.000    
 BOUNDARY     36   LAYER   1   ROW     3   COL     6   RATE     750.000    
 BOUNDARY     37   LAYER   1   ROW     3   COL     7   RATE     750.000    
 BOUNDARY     38   LAYER   1   ROW     3   COL     8   RATE     750.000    
 BOUNDARY     39   LAYER   1   ROW     3   COL     9   RATE     750.000    
 BOUNDARY     40   LAYER   1   ROW     3   COL    10   RATE     750.000    
 BOUNDARY     41   LAYER   1   ROW     3   COL    11   RATE     750.000    
 BOUNDARY     42   LAYER   1   ROW     3   COL    12   RATE     750.000    
 BOUNDARY     43   LAYER   1   ROW     3   COL    13   RATE     750.000    
 BOUNDARY     44   LAYER   1   ROW     3   COL    14   RATE     750.000    
 BOUNDARY     45   LAYER   1   ROW     3   COL    15   RATE     750.000    
 BOUNDARY     47   LAYER   1   ROW     4   COL     2   RATE     750.000    
 BOUNDARY     48   LAYER   1   ROW     4   COL     3   RATE     750.000    
 BOUNDARY     49   LAYER   1   ROW     4   COL     4   RATE     750.000    
 BOUNDARY     50   LAYER   1   ROW     4   COL     5   RATE     750.000    
 BOUNDARY     51   LAYER   1   ROW     4   COL     6   RATE     750.000    
 BOUNDARY     52   LAYER   1   ROW     4   COL     7   RATE     750.000    
 BOUNDARY     53   LAYER   1   ROW     4   COL     8   RATE     750.000    
 BOUNDARY     54   LAYER   1   ROW     4   COL     9   RATE     750.000    
 BOUNDARY     55   LAYER   1   ROW     4   COL    10   RATE     750.000    
 BOUNDARY     56   LAYER   1   ROW     4   COL    11   RATE     750.000    
 BOUNDARY     57   LAYER   1   ROW     4   COL    12   RATE     750.000    
 BOUNDARY     58   LAYER   1   ROW     4   COL    13   RATE     750.000    
 BOUNDARY     59   LAYER   1   ROW     4   COL    14   RATE     750.000    
 BOUNDARY     60   LAYER   1   ROW     4   COL    15   RATE     750.000    
 BOUNDARY     62   LAYER   1   ROW     5   COL     2   RATE     750.000    
 BOUNDARY     63   LAYER   1   ROW     5   COL     3   RATE     750.000    
 BOUNDARY     64   LAYER   1   ROW     5   COL     4   RATE     750.000    
 BOUNDARY     65   LAYER   1   ROW     5   COL     5   RATE     750.000    
 BOUNDARY     66   LAYER   1   ROW     5   COL     6   RATE     750.000    
 BOUNDARY     67   LAYER   1   ROW     5   COL     7   RATE     750.000    
 BOUNDARY     68   LAYER   1   ROW     5   COL     8   RATE     750.000    
 BOUNDARY     69   LAYER   1   ROW     5   COL     9   RATE     750.000    
 BOUNDARY     70   LAYER   1   ROW     5   COL    10   RATE     750.000    
 BOUNDARY     71   LAYER   1   ROW     5   COL    11   RATE     750.000    
 BOUNDARY     72   LAYER   1   ROW     5   COL    12   RATE     750.000    
 BOUNDARY     73   LAYER   1   ROW     5   COL    13   RATE     750.000    
 BOUNDARY     74   LAYER   1   ROW     5   COL    14   RATE     750.000    
 BOUNDARY     75   LAYER   1   ROW     5   COL    15   RATE     750.000    
 BOUNDARY     77   LAYER   1   ROW     6   COL     2   RATE     750.000    
 BOUNDARY     78   LAYER   1   ROW     6   COL     3   RATE     750.000    
 BOUNDARY     79   LAYER   1   ROW     6   COL     4   RATE     750.000    
 BOUNDARY     80   LAYER   1   ROW     6   COL     5   RATE     750.000    
 BOUNDARY     81   LAYER   1   ROW     6   COL     6   RATE     750.000    
 BOUNDARY     82   LAYER   1   ROW     6   COL     7   RATE     750.000    
 BOUNDARY     83   LAYER   1   ROW     6   COL     8   RATE     750.000    
 BOUNDARY     84   LAYER   1   ROW     6   COL     9   RATE     750.000    
 BOUNDARY     85   LAYER   1   ROW     6   COL    10   RATE     750.000    
 BOUNDARY     86   LAYER   1   ROW     6   COL    11   RATE     750.000    
 BOUNDARY     87   LAYER   1   ROW     6   COL    12   RATE     750.000    
 BOUNDARY     88   LAYER   1   ROW     6   COL    13   RATE     750.000    
 BOUNDARY     89   LAYER   1   ROW     6   COL    14   RATE     750.000    
 BOUNDARY     90   LAYER   1   ROW     6   COL    15   RATE     750.000    
 BOUNDARY     91   LAYER   1   ROW     7   COL     1   RATE     750.000    
 BOUNDARY     92   LAYER   1   ROW     7   COL     2   RATE     750.000    
 BOUNDARY     93   LAYER   1   ROW     7   COL     3   RATE     750.000    
 BOUNDARY     94   LAYER   1   ROW     7   COL     4   RATE     750.000    
 BOUNDARY     95   LAYER   1   ROW     7   COL     5   RATE     750.000    
 BOUNDARY     96   LAYER   1   ROW     7   COL     6   RATE     750.000    
 BOUNDARY     97   LAYER   1   ROW     7   COL     7   RATE     750.000    
 BOUNDARY     98   LAYER   1   ROW     7   COL     8   RATE     750.000    
 BOUNDARY     99   LAYER   1   ROW     7   COL     9   RATE     750.000    
 BOUNDARY    100   LAYER   1   ROW     7   COL    10   RATE     750.000    
 BOUNDARY    101   LAYER   1   ROW     7   COL    11   RATE     750.000    
 BOUNDARY    102   LAYER   1   ROW     7   COL    12   RATE     750.000    
 BOUNDARY    103   LAYER   1   ROW     7   COL    13   RATE     750.000    
 BOUNDARY    104   LAYER   1   ROW     7   COL    14   RATE     750.000    
 BOUNDARY    105   LAYER   1   ROW     7   COL    15   RATE     750.000    
 BOUNDARY    106   LAYER   1   ROW     8   COL     1   RATE     750.000    
 BOUNDARY    107   LAYER   1   ROW     8   COL     2   RATE     750.000    
 BOUNDARY    108   LAYER   1   ROW     8   COL     3   RATE     750.000    
 BOUNDARY    109   LAYER   1   ROW     8   COL     4   RATE     750.000    
 BOUNDARY    110   LAYER   1   ROW     8   COL     5   RATE     750.000    
 BOUNDARY    111   LAYER   1   ROW     8   COL     6   RATE     750.000    
 BOUNDARY    112   LAYER   1   ROW     8   COL     7   RATE     750.000    
 BOUNDARY    113   LAYER   1   ROW     8   COL     8   RATE     750.000    
 BOUNDARY    114   LAYER   1   ROW     8   COL     9   RATE     750.000    
 BOUNDARY    115   LAYER   1   ROW     8   COL    10   RATE     750.000    
 BOUNDARY    116   LAYER   1   ROW     8   COL    11   RATE     750.000    
 BOUNDARY    117   LAYER   1   ROW     8   COL    12   RATE     750.000    
 BOUNDARY    118   LAYER   1   ROW     8   COL    13   RATE     750.000    
 BOUNDARY    119   LAYER   1   ROW     8   COL    14   RATE     750.000    
 BOUNDARY    120   LAYER   1   ROW     8   COL    15   RATE     750.000    
 BOUNDARY    121   LAYER   1   ROW     9   COL     1   RATE     750.000    
 BOUNDARY    122   LAYER   1   ROW     9   COL     2   RATE     750.000    
 BOUNDARY    123   LAYER   1   ROW     9   COL     3   RATE     750.000    
 BOUNDARY    124   LAYER   1   ROW     9   COL     4   RATE     750.000    
 BOUNDARY    125   LAYER   1   ROW     9   COL     5   RATE     750.000    
 BOUNDARY    126   LAYER   1   ROW     9   COL     6   RATE     750.000    
 BOUNDARY    127   LAYER   1   ROW     9   COL     7   RATE     750.000    
 BOUNDARY    128   LAYER   1   ROW     9   COL     8   RATE     750.000    
 BOUNDARY    129   LAYER   1   ROW     9   COL     9   RATE     750.000    
 BOUNDARY    130   LAYER   1   ROW     9   COL    10   RATE     750.000    
 BOUNDARY    131   LAYER   1   ROW     9   COL    11   RATE     750.000    
 BOUNDARY    132   LAYER   1   ROW     9   COL    12   RATE     750.000    
 BOUNDARY    133   LAYER   1   ROW     9   COL    13   RATE     750.000    
 BOUNDARY    134   LAYER   1   ROW     9   COL    14   RATE     750.000    
 BOUNDARY    135   LAYER   1   ROW     9   COL    15   RATE     750.000    
 BOUNDARY    137   LAYER   1   ROW    10   COL     2   RATE     750.000    
 BOUNDARY    138   LAYER   1   ROW    10   COL     3   RATE     750.000    
 BOUNDARY    139   LAYER   1   ROW    10   COL     4   RATE     750.000    
 BOUNDARY    140   LAYER   1   ROW    10   COL     5   RATE     750.000    
 BOUNDARY    141   LAYER   1   ROW    10   COL     6   RATE     750.000    
 BOUNDARY    142   LAYER   1   ROW    10   COL     7   RATE     750.000    
 BOUNDARY    143   LAYER   1   ROW    10   COL     8   RATE     750.000    
 BOUNDARY    144   LAYER   1   ROW    10   COL     9   RATE     750.000    
 BOUNDARY    145   LAYER   1   ROW    10   COL    10   RATE     750.000    
 BOUNDARY    146   LAYER   1   ROW    10   COL    11   RATE     750.000    
 BOUNDARY    147   LAYER   1   ROW    10   COL    12   RATE     750.000    
 BOUNDARY    148   LAYER   1   ROW    10   COL    13   RATE     750.000    
 BOUNDARY    149   LAYER   1   ROW    10   COL    14   RATE     750.000    
 BOUNDARY    150   LAYER   1   ROW    10   COL    15   RATE     750.000    
 UBDSV4 SAVING ET SEGS          ON UNIT   1017 AT TIME STEP      9, STRESS PERIOD      2

 ET SEGS            PERIOD  2   STEP  9
 BOUNDARY      1   LAYER   1   ROW     1   COL    13   RATE    -62.9682      ET-1
 BOUNDARY      2   LAYER   1   ROW     2   COL    13   RATE    -119.078      ET-2
 BOUNDARY      3   LAYER   1   ROW     3   COL    13   RATE    -164.594      ET-3
 BOUNDARY      4   LAYER   1   ROW     4   COL    13   RATE    -200.151      ET-4
 BOUNDARY      5   LAYER   1   ROW     5   COL    13   RATE    -277.622      ET-5
 BOUNDARY      6   LAYER   1   ROW     6   COL    13   RATE    -276.759      ET-6
 BOUNDARY      7   LAYER   1   ROW     7   COL    13   RATE    -211.446      ET-7
 BOUNDARY      8   LAYER   1   ROW     8   COL    13   RATE    -167.509      ET-8
 BOUNDARY      9   LAYER   1   ROW     9   COL    13   RATE    -111.035      ET-9
 BOUNDARY     10   LAYER   1   ROW    10   COL    13   RATE    -32.6047      ET-10
 BOUNDARY     11   LAYER   1   ROW     1   COL    12   RATE    -97.0786      ET-1
 BOUNDARY     12   LAYER   1   ROW     2   COL    12   RATE    -168.838      ET-2
 BOUNDARY     13   LAYER   1   ROW     3   COL    12   RATE    -231.974      ET-3
 BOUNDARY     14   LAYER   1   ROW     4   COL    12   RATE    -287.219      ET-4
 BOUNDARY     15   LAYER   1   ROW     5   COL    12   RATE    -405.375      ET-5
 BOUNDARY     16   LAYER   1   ROW     6   COL    12   RATE    -404.479      ET-6
 BOUNDARY     17   LAYER   1   ROW     7   COL    12   RATE    -304.146      ET-7
 BOUNDARY     18   LAYER   1   ROW     8   COL    12   RATE    -236.184      ET-8
 BOUNDARY     19   LAYER   1   ROW     9   COL    12   RATE    -161.930      ET-9
 BOUNDARY     20   LAYER   1   ROW    10   COL    12   RATE    -52.9341      ET-10
 UBDSV4 SAVING CONSTANT HEADS   ON UNIT   1017 AT TIME STEP      9, STRESS PERIOD      2

 CONSTANT HEADS     PERIOD  2   STEP  9
 BOUNDARY      1   LAYER   1   ROW     1   COL     1   RATE     2632.73      CHD-1
 BOUNDARY      2   LAYER   1   ROW     4   COL     1   RATE     4703.20    
 BOUNDARY      3   LAYER   1   ROW     5   COL     1   RATE     828.060      CHD_GP
 BOUNDARY      4   LAYER   1   ROW     6   COL     1   RATE     4318.92      CHD_GP
 BOUNDARY      5   LAYER   1   ROW    10   COL     1   RATE     1783.37      CHD-10

 HEAD WILL BE SAVED ON UNIT 1018 AT END OF TIME STEP    9, STRESS PERIOD    2
WEL   no.    1 value from time series:  -30000.     for time:  2.800     to  3.000    
WEL   no.    2 value from time series:  -5800.0     for time:  2.800     to  3.000    
RIV   no.    1 value from time series:   104.80     for time:  2.800     to  3.000    
RIV   no.    2 value from time series:   104.80     for time:  2.800     to  3.000    
RIV   no.    3 value from time series:   104.80     for time:  2.800     to  3.000    
RIV   no.    4 value from time series:   104.80     for time:  2.800     to  3.000    
RIV   no.    5 value from time series:   104.80     for time:  2.800     to  3.000    
RIV   no.    6 value from time series:   104.80     for time:  2.800     to  3.000    
RIV   no.    7 value from time series:   104.80     for time:  2.800     to  3.000    
RIV   no.    8 value from time series:   104.80     for time:  2.800     to  3.000    
RIV   no.    9 value from time series:   104.80     for time:  2.800     to  3.000    
RIV   no.   10 value from time series:   104.80     for time:  2.800     to  3.000    
EVT   no.    1 value from time series:   835.31     for time:  2.800     to  3.000    
EVT   no.    2 value from time series:   1670.6     for time:  2.800     to  3.000    
EVT   no.    3 value from time series:   2505.9     for time:  2.800     to  3.000    
EVT   no.    4 value from time series:   3341.2     for time:  2.800     to  3.000    
EVT   no.   10 value from time series:   417.66     for time:  2.800     to  3.000    
EVT   no.   11 value from time series:   835.31     for time:  2.800     to  3.000    
EVT   no.   12 value from time series:   1670.6     for time:  2.800     to  3.000    
EVT   no.   13 value from time series:   2505.9     for time:  2.800     to  3.000    
EVT   no.   14 value from time series:   3341.2     for time:  2.800     to  3.000    
EVT   no.   20 value from time series:   417.66     for time:  2.800     to  3.000    
WEL   no.    1 value from time series:  -30000.     for time:  2.800     to  3.000    
WEL   no.    2 value from time series:  -5800.0     for time:  2.800     to  3.000    
RIV   no.    1 value from time series:   104.80     for time:  2.800     to  3.000    
RIV   no.    2 value from time series:   104.80     for time:  2.800     to  3.000    
RIV   no.    3 value from time series:   104.80     for time:  2.800     to  3.000    
RIV   no.    4 value from time series:   104.80     for time:  2.800     to  3.000    
RIV   no.    5 value from time series:   104.80     for time:  2.800     to  3.000    
RIV   no.    6 value from time series:   104.80     for time:  2.800     to  3.000    
RIV   no.    7 value from time series:   104.80     for time:  2.800     to  3.000    
RIV   no.    8 value from time series:   104.80     for time:  2.800     to  3.000    
RIV   no.    9 value from time series:   104.80     for time:  2.800     to  3.000    
RIV   no.   10 value from time series:   104.80     for time:  2.800     to  3.000    
EVT   no.    1 value from time series:   835.31     for time:  2.800     to  3.000    
EVT   no.    2 value from time series:   1670.6     for time:  2.800     to  3.000    
EVT   no.    3 value from time series:   2505.9     for time:  2.800     to  3.000    
EVT   no.    4 value from time series:   3341.2     for time:  2.800     to  3.000    
EVT   no.   10 value from time series:   417.66     for time:  2.800     to  3.000    
EVT   no.   11 value from time series:   835.31     for time:  2.800     to  3.000    
EVT   no.   12 value from time series:   1670.6     for time:  2.800     to  3.000    
EVT   no.   13 value from time series:   2505.9     for time:  2.800     to  3.000    
EVT   no.   14 value from time series:   3341.2     for time:  2.800     to  3.000    
EVT   no.   20 value from time series:   417.66     for time:  2.800     to  3.000    

 OUTPUT CONTROL FOR STRESS PERIOD    2   TIME STEP   10
    PRINT BUDGET
    SAVE BUDGET
    SAVE HEAD
    SAVE HEAD FOR ALL LAYERS
 UBDSV1 SAVING      STORAGE(SS) ON UNIT   1017 AT TIME STEP     10, STRESS PERIOD      2
 UBDSV1 SAVING      STORAGE(SY) ON UNIT   1017 AT TIME STEP     10, STRESS PERIOD      2
 UBDSV1 SAVING FLOW RIGHT FACE  ON UNIT   1017 AT TIME STEP     10, STRESS PERIOD      2
 UBDSV1 SAVING FLOW FRONT FACE  ON UNIT   1017 AT TIME STEP     10, STRESS PERIOD      2
 UBDSV1 SAVING FLOW LOWER FACE  ON UNIT   1017 AT TIME STEP     10, STRESS PERIOD      2
 UBDSV4 SAVING WELLS NEAR RIVER ON UNIT   1017 AT TIME STEP     10, STRESS PERIOD      2

 WELLS NEAR RIVER   PERIOD  2   STEP 10
 BOUNDARY      1   LAYER   2   ROW     3   COL     4   RATE    -30000.0      WELL_1
 BOUNDARY      2   LAYER   2   ROW     8   COL     4   RATE    -5800.00      WELL_2
 BOUNDARY      3   LAYER   2   ROW     4   COL     6   RATE   -10.00000    
 BOUNDARY      4   LAYER   2   ROW     5   COL     8   RATE    -20.0000    
 BOUNDARY      5   LAYER   2   ROW     2   COL     9   RATE    -40.0000    
 UBDSV4 SAVING RIVER            ON UNIT   1017 AT TIME STEP     10, STRESS PERIOD      2

 RIVER              PERIOD  2   STEP 10
 BOUNDARY      1   LAYER   1   ROW     1   COL    15   RATE     25026.3    
 BOUNDARY      2   LAYER   1   ROW     2   COL    15   RATE     25044.2      RIV2
 BOUNDARY      3   LAYER   1   ROW     3   COL    15   RATE     25071.0      RIV3
 BOUNDARY      4   LAYER   1   ROW     4   COL    15   RATE     25099.0    
 BOUNDARY      5   LAYER   1   ROW     5   COL    15   RATE     25120.7    
 BOUNDARY      6   LAYER   1   ROW     6   COL    15   RATE     25121.3    
 BOUNDARY      7   LAYER   1   ROW     7   COL    15   RATE     25100.4      RIVX
 BOUNDARY      8   LAYER   1   ROW     8   COL    15   RATE     25069.4      RIVX
 BOUNDARY      9   LAYER   1   ROW     9   COL    15   RATE     25037.0      RIVX
 BOUNDARY     10   LAYER   1   ROW    10   COL    15   RATE     25014.0    

 GHB LAKES          PERIOD  2   STEP 10
 BOUNDARY      1   LAYER   1   ROW     3   COL     1   RATE    -7851.65    
 BOUNDARY      2   LAYER   1   ROW     7   COL     1   RATE     4377.96      GHB2_UPPER
 BOUNDARY      3   LAYER   1   ROW     7   COL     1   RATE    -10982.4      GHB2_LOWER
 UBDSV4 SAVING RECHARGE         ON UNIT   1017 AT TIME STEP     10, STRESS PERIOD      2

 RECHARGE           PERIOD  2   STEP 10
 BOUNDARY      2   LAYER   1   ROW     1   COL     2   RATE     750.000    
 BOUNDARY      3   LAYER   1   ROW     1   COL     3   RATE     750.000    
 BOUNDARY      4   LAYER   1   ROW     1   COL     4   RATE     750.000    
 BOUNDARY      5   LAYER   1   ROW     1   COL     5   RATE     750.000    
 BOUNDARY      6   LAYER   1   ROW     1   COL     6   RATE     750.000    
 BOUNDARY      7   LAYER   1   ROW     1   COL     7   RATE     750.000    
 BOUNDARY      8   LAYER   1   ROW     1   COL     8   RATE     750.000    
 BOUNDARY      9   LAYER   1   ROW     1   COL     9   RATE     750.000    
 BOUNDARY     10   LAYER   1   ROW     1   COL    10   RATE     750.000    
 BOUNDARY     11   LAYER   1   ROW     1   COL    11   RATE     750.000    
 BOUNDARY     12   LAYER   1   ROW     1   COL    12   RATE     750.000    
 BOUNDARY     13   LAYER   1   ROW     1   COL    13   RATE     750.000    
 BOUNDARY     14   LAYER   1   ROW     1   COL    14   RATE     750.000    
 BOUNDARY     15   LAYER   1   ROW     1   COL    15   RATE     750.000    
 BOUNDARY     16   LAYER   1   ROW     2   COL     1   RATE     750.000    
 BOUNDARY     17   LAYER   1   ROW     2   COL     2   RATE     750.000    
 BOUNDARY     18   LAYER   1   ROW     2   COL     3   RATE     750.000    
 BOUNDARY     19   LAYER   1   ROW     2   COL     4   RATE     750.000    
 BOUNDARY     20   LAYER   1   ROW     2   COL     5   RATE     750.000    
 BOUNDARY     21   LAYER   1   ROW     2   COL     6   RATE     750.000    
 BOUNDARY     22   LAYER   1   ROW     2   COL     7   RATE     750.000    
 BOUNDARY     23   LAYER   1   ROW     2   COL     8   RATE     750.000    
 BOUNDARY     24   LAYER   1   ROW     2   COL     9   RATE     750.000    
 BOUNDARY     25   LAYER   1   ROW     2   COL    10   RATE     750.000    
 BOUNDARY     26   LAYER   1   ROW     2   COL    11   RATE     750.000    
 BOUNDARY     27   LAYER   1   ROW     2   COL    12   RATE     750.000    
 BOUNDARY     28   LAYER   1   ROW     2   COL    13   RATE     750.000    
 BOUNDARY     29   LAYER   1   ROW     2   COL    14   RATE     750.000    
 BOUNDARY     30   LAYER   1   ROW     2   COL    15   RATE     750.000    
 BOUNDARY     31   LAYER   1   ROW     3   COL     1   RATE     750.000    
 BOUNDARY     32   LAYER   1   ROW     3   COL     2   RATE     750.000    
 BOUNDARY     33   LAYER   1   ROW     3   COL     3   RATE     750.000    
 BOUNDARY     34   LAYER   1   ROW     3   COL     4   RATE     750.000    
 BOUNDARY     35   LAYER   1   ROW     3   COL     5   RATE     750.000    
 BOUNDARY     36   LAYER   1   ROW     3   COL     6   RATE     750.000    
 BOUNDARY     37   LAYER   1   ROW     3   COL     7   RATE     750.000    
 BOUNDARY     38   LAYER   1   ROW     3   COL     8   RATE     750.000    
 BOUNDARY     39   LAYER   1   ROW     3   COL     9   RATE     750.000    
 BOUNDARY     40   LAYER   1   ROW     3   COL    10   RATE     750.000    
 BOUNDARY     41   LAYER   1   ROW     3   COL    11   RATE     750.000    
 BOUNDARY     42   LAYER   1   ROW     3   COL    12   RATE     750.000    
 BOUNDARY     43   LAYER   1   ROW     3   COL    13   RATE     750.000    
 BOUNDARY     44   LAYER   1   ROW     3   COL    14   RATE     750.000    
 BOUNDARY     45   LAYER   1   ROW     3   COL    15   RATE     750.000    
 BOUNDARY     47   LAYER   1   ROW     4   COL     2   RATE     750.000    
 BOUNDARY     48   LAYER   1   ROW     4   COL     3   RATE     750.000    
 BOUNDARY     49   LAYER   1   ROW     4   COL     4   RATE     750.000    
 BOUNDARY     50   LAYER   1   ROW     4   COL     5   RATE     750.000    
 BOUNDARY     51   LAYER   1   ROW     4   COL     6   RATE     750.000    
 BOUNDARY     52   LAYER   1   ROW     4   COL     7   RATE     750.000    
 BOUNDARY     53   LAYER   1   ROW     4   COL     8   RATE     750.000    
 BOUNDARY     54   LAYER   1   ROW     4   COL     9   RATE     750.000    
 BOUNDARY     55   LAYER   1   ROW     4   COL    10   RATE     750.000    
 BOUNDARY     56   LAYER   1   ROW     4   COL    11   RATE     750.000    
 BOUNDARY     57   LAYER   1   ROW     4   COL    12   RATE     750.000    
 BOUNDARY     58   LAYER   1   ROW     4   COL    13   RATE     750.000    
 BOUNDARY     59   LAYER   1   ROW     4   COL    14   RATE     750.000    
 BOUNDARY     60   LAYER   1   ROW     4   COL    15   RATE     750.000    
 BOUNDARY     62   LAYER   1   ROW     5   COL     2   RATE     750.000    
 BOUNDARY     63   LAYER   1   ROW     5   COL     3   RATE     750.000    
 BOUNDARY     64   LAYER   1   ROW     5   COL     4   RATE     750.000    
 BOUNDARY     65   LAYER   1   ROW     5   COL     5   RATE     750.000    
 BOUNDARY     66   LAYER   1   ROW     5   COL     6   RATE     750.000    
 BOUNDARY     67   LAYER   1   ROW     5   COL     7   RATE     750.000    
 BOUNDARY     68   LAYER   1   ROW     5   COL     8   RATE     750.000    
 BOUNDARY     69   LAYER   1   ROW     5   COL     9   RATE     750.000    
 BOUNDARY     70   LAYER   1   ROW     5   COL    10   RATE     750.000    
 BOUNDARY     71   LAYER   1   ROW     5   COL    11   RATE     750.000    
 BOUNDARY     72   LAYER   1   ROW     5   COL    12   RATE     750.000    
 BOUNDARY     73   LAYER   1   ROW     5   COL    13   RATE     750.000    
 BOUNDARY     74   LAYER   1   ROW     5   COL    14   RATE     750.000    
 BOUNDARY     75   LAYER   1   ROW     5   COL    15   RATE     750.000    
 BOUNDARY     77   LAYER   1   ROW     6   COL     2   RATE     750.000    
 BOUNDARY     78   LAYER   1   ROW     6   COL     3   RATE     750.000    
 BOUNDARY     79   LAYER   1   ROW     6   COL     4   RATE     750.000    
 BOUNDARY     80   LAYER   1   ROW     6   COL     5   RATE     750.000    
 BOUNDARY     81   LAYER   1   ROW     6   COL     6   RATE     750.000    
 BOUNDARY     82   LAYER   1   ROW     6   COL     7   RATE     750.000    
 BOUNDARY     83   LAYER   1   ROW     6   COL     8   RATE     750.000    
 BOUNDARY     84   LAYER   1   ROW     6   COL     9   RATE     750.000    
 BOUNDARY     85   LAYER   1   ROW     6   COL    10   RATE     750.000    
 BOUNDARY     86   LAYER   1   ROW     6   COL    11   RATE     750.000    
 BOUNDARY     87   LAYER   1   ROW     6   COL    12   RATE     750.000    
 BOUNDARY     88   LAYER   1   ROW     6   COL    13   RATE     750.000    
 BOUNDARY     89   LAYER   1   ROW     6   COL    14   RATE     750.000    
 BOUNDARY     90   LAYER   1   ROW     6   COL    15   RATE     750.000    
 BOUNDARY     91   LAYER   1   ROW     7   COL     1   RATE     750.000    
 BOUNDARY     92   LAYER   1   ROW     7   COL     2   RATE     750.000    
 BOUNDARY     93   LAYER   1   ROW     7   COL     3   RATE     750.000    
 BOUNDARY     94   LAYER   1   ROW     7   COL     4   RATE     750.000    
 BOUNDARY     95   LAYER   1   ROW     7   COL     5   RATE     750.000    
 BOUNDARY     96   LAYER   1   ROW     7   COL     6   RATE     750.000    
 BOUNDARY     97   LAYER   1   ROW     7   COL     7   RATE     750.000    
 BOUNDARY     98   LAYER   1   ROW     7   COL     8   RATE     750.000    
 BOUNDARY     99   LAYER   1   ROW     7   COL     9   RATE     750.000    
 BOUNDARY    100   LAYER   1   ROW     7   COL    10   RATE     750.000    
 BOUNDARY    101   LAYER   1   ROW     7   COL    11   RATE     750.000    
 BOUNDARY    102   LAYER   1   ROW     7   COL    12   RATE     750.000    
 BOUNDARY    103   LAYER   1   ROW     7   COL    13   RATE     750.000    
 BOUNDARY    104   LAYER   1   ROW     7   COL    14   RATE     750.000    
 BOUNDARY    105   LAYER   1   ROW     7   COL    15   RATE     750.000    
 BOUNDARY    106   LAYER   1   ROW     8   COL     1   RATE     750.000    
 BOUNDARY    107   LAYER   1   ROW     8   COL     2   RATE     750.000    
 BOUNDARY    108   LAYER   1   ROW     8   COL     3   RATE     750.000    
 BOUNDARY    109   LAYER   1   ROW     8   COL     4   RATE     750.000    
 BOUNDARY    110   LAYER   1   ROW     8   COL     5   RATE     750.000    
 BOUNDARY    111   LAYER   1   ROW     8   COL     6   RATE     750.000    
 BOUNDARY    112   LAYER   1   ROW     8   COL     7   RATE     750.000    
 BOUNDARY    113   LAYER   1   ROW     8   COL     8   RATE     750.000    
 BOUNDARY    114   LAYER   1   ROW     8   COL     9   RATE     750.000    
 BOUNDARY    115   LAYER   1   ROW     8   COL    10   RATE     750.000    
 BOUNDARY    116   LAYER   1   ROW     8   COL    11   RATE     750.000    
 BOUNDARY    117   LAYER   1   ROW     8   COL    12   RATE     750.000    
 BOUNDARY    118   LAYER   1   ROW     8   COL    13   RATE     750.000    
 BOUNDARY    119   LAYER   1   ROW     8   COL    14   RATE     750.000    
 BOUNDARY    120   LAYER   1   ROW     8   COL    15   RATE     750.000    
 BOUNDARY    121   LAYER   1   ROW     9   COL     1   RATE     750.000    
 BOUNDARY    122   LAYER   1   ROW     9   COL     2   RATE     750.000    
 BOUNDARY    123   LAYER   1   ROW     9   COL     3   RATE     750.000    
 BOUNDARY    124   LAYER   1   ROW     9   COL     4   RATE     750.000    
 BOUNDARY    125   LAYER   1   ROW     9   COL     5   RATE     750.000    
 BOUNDARY    126   LAYER   1   ROW     9   COL     6   RATE     750.000    
 BOUNDARY    127   LAYER   1   ROW     9   COL     7   RATE     750.000    
 BOUNDARY    128   LAYER   1   ROW     9   COL     8   RATE     750.000    
 BOUNDARY    129   LAYER   1   ROW     9   COL     9   RATE     750.000    
 BOUNDARY    130   LAYER   1   ROW     9   COL    10   RATE     750.000    
 BOUNDARY    131   LAYER   1   ROW     9   COL    11   RATE     750.000    
 BOUNDARY    132   LAYER   1   ROW     9   COL    12   RATE     750.000    
 BOUNDARY    133   LAYER   1   ROW     9   COL    13   RATE     750.000    
 BOUNDARY    134   LAYER   1   ROW     9   COL    14   RATE     750.000    
 BOUNDARY    135   LAYER   1   ROW     9   COL    15   RATE     750.000    
 BOUNDARY    137   LAYER   1   ROW    10   COL     2   RATE     750.000    
 BOUNDARY    138   LAYER   1   ROW    10   COL     3   RATE     750.000    
 BOUNDARY    139   LAYER   1   ROW    10   COL     4   RATE     750.000    
 BOUNDARY    140   LAYER   1   ROW    10   COL     5   RATE     750.000    
 BOUNDARY    141   LAYER   1   ROW    10   COL     6   RATE     750.000    
 BOUNDARY    142   LAYER   1   ROW    10   COL     7   RATE     750.000    
 BOUNDARY    143   LAYER   1   ROW    10   COL     8   RATE     750.000    
 BOUNDARY    144   LAYER   1   ROW    10   COL     9   RATE     750.000    
 BOUNDARY    145   LAYER   1   ROW    10   COL    10   RATE     750.000    
 BOUNDARY    146   LAYER   1   ROW    10   COL    11   RATE     750.000    
 BOUNDARY    147   LAYER   1   ROW    10   COL    12   RATE     750.000    
 BOUNDARY    148   LAYER   1   ROW    10   COL    13   RATE     750.000    
 BOUNDARY    149   LAYER   1   ROW    10   COL    14   RATE     750.000    
 BOUNDARY    150   LAYER   1   ROW    10   COL    15   RATE     750.000    
 UBDSV4 SAVING ET SEGS          ON UNIT   1017 AT TIME STEP     10, STRESS PERIOD      2

 ET SEGS            PERIOD  2   STEP 10
 BOUNDARY      1   LAYER   1   ROW     1   COL    13   RATE    -64.3595      ET-1
 BOUNDARY      2   LAYER   1   ROW     2   COL    13   RATE    -121.719      ET-2
 BOUNDARY      3   LAYER   1   ROW     3   COL    13   RATE    -168.263      ET-3
 BOUNDARY      4   LAYER   1   ROW     4   COL    13   RATE    -204.644      ET-4
 BOUNDARY      5   LAYER   1   ROW     5   COL    13   RATE    -278.178      ET-5
 BOUNDARY      6   LAYER   1   ROW     6   COL    13   RATE    -277.315      ET-6
 BOUNDARY      7   LAYER   1   ROW     7   COL    13   RATE    -211.836      ET-7
 BOUNDARY      8   LAYER   1   ROW     8   COL    13   RATE    -167.789      ET-8
 BOUNDARY      9   LAYER   1   ROW     9   COL    13   RATE    -111.203      ET-9
 BOUNDARY     10   LAYER   1   ROW    10   COL    13   RATE    -33.3237      ET-10
 BOUNDARY     11   LAYER   1   ROW     1   COL    12   RATE    -99.3878      ET-1
 BOUNDARY     12   LAYER   1   ROW     2   COL    12   RATE    -172.928      ET-2
 BOUNDARY     13   LAYER   1   ROW     3   COL    12   RATE    -237.031      ET-3
 BOUNDARY     14   LAYER   1   ROW     4   COL    12   RATE    -293.503      ET-4
 BOUNDARY     15   LAYER   1   ROW     5   COL    12   RATE    -405.930      ET-5
 BOUNDARY     16   LAYER   1   ROW     6   COL    12   RATE    -405.034      ET-6
 BOUNDARY     17   LAYER   1   ROW     7   COL    12   RATE    -304.536      ET-7
 BOUNDARY     18   LAYER   1   ROW     8   COL    12   RATE    -236.462      ET-8
 BOUNDARY     19   LAYER   1   ROW     9   COL    12   RATE    -162.485      ET-9
 BOUNDARY     20   LAYER   1   ROW    10   COL    12   RATE    -54.1801      ET-10
 UBDSV4 SAVING CONSTANT HEADS   ON UNIT   1017 AT TIME STEP     10, STRESS PERIOD      2

 CONSTANT HEADS     PERIOD  2   STEP 10
 BOUNDARY      1   LAYER   1   ROW     1   COL     1   RATE     2631.17      CHD-1
 BOUNDARY      2   LAYER   1   ROW     4   COL     1   RATE     4703.18    
 BOUNDARY      3   LAYER   1   ROW     5   COL     1   RATE     827.607      CHD_GP
 BOUNDARY      4   LAYER   1   ROW     6   COL     1   RATE     4316.90      CHD_GP
 BOUNDARY      5   LAYER   1   ROW    10   COL     1   RATE     1780.63      CHD-10

 HEAD WILL BE SAVED ON UNIT 1018 AT END OF TIME STEP   10, STRESS PERIOD    2
1
  VOLUME BUDGET FOR ENTIRE MODEL AT END OF TIME STEP   10, STRESS PERIOD   2
  ------------------------------------------------------------------------------

     CUMULATIVE VOLUME      L**3       RATES FOR THIS TIME STEP      L**3/T
     ------------------                 ------------------------

           IN:                                      IN:
           ---                                      ---
         STORAGE(SS) =       30592.0423           STORAGE(SS) =       10906.4980
         STORAGE(SY) =       30837.8539           STORAGE(SY) =       19410.4439
    WELLS NEAR RIVER =           0.0000      WELLS NEAR RIVER =           0.0000
               RIVER =      289357.4379                 RIVER =      250703.3224
           GHB LAKES =       13255.4304             GHB LAKES =        4377.9596
            RECHARGE =      224750.0000              RECHARGE =      108750.0000
             ET SEGS =           0.0000               ET SEGS =           0.0000
      CONSTANT HEADS =       42962.1879        CONSTANT HEADS =       14259.4982

            TOTAL IN =      631754.9524              TOTAL IN =      408407.7220

          OUT:                                     OUT:
          ----                                     ----
         STORAGE(SS) =         294.8373           STORAGE(SS) =         324.1251
         STORAGE(SY) =      491991.3684           STORAGE(SY) =      349369.4127
    WELLS NEAR RIVER =       68140.0000      WELLS NEAR RIVER =       35870.0000
               RIVER =        3514.3129                 RIVER =           0.0000
           GHB LAKES =       56259.0407             GHB LAKES =       18834.0775
            RECHARGE =           0.0000              RECHARGE =           0.0000
             ET SEGS =       11555.3984               ET SEGS =        4010.1068
      CONSTANT HEADS =           0.0000        CONSTANT HEADS =           0.0000

           TOTAL OUT =      631754.9578             TOTAL OUT =      408407.7220

            IN - OUT =      -5.4015E-03              IN - OUT =      -4.4820E-09

 PERCENT DISCREPANCY =          -0.00     PERCENT DISCREPANCY =          -0.00






         TIME SUMMARY AT END OF TIME STEP   10 IN STRESS PERIOD    2
                    SECONDS     MINUTES      HOURS       DAYS        YEARS
                    -----------------------------------------------------------
   TIME STEP LENGTH  17280.      288.00      4.8000     0.20000     5.47570E-04
 STRESS PERIOD TIME 1.72800E+05  2880.0      48.000      2.0000     5.47570E-03
         TOTAL TIME 2.59200E+05  4320.0      72.000      3.0000     8.21355E-03

 REUSING STORAGE VALUES FROM LAST STRESS PERIOD
 #        k         i         j      flow      var1    var2 var3

 WEL NO.  LAYER   ROW    COL     STRESS RATE  BOUNDARY NAME         VAR1            VAR2            VAR3            
 -------------------------------------------------------------------------------------------------------------------
      1      1      2      3      -50.00                           -1.0000          -2.000          -3.000    
      2      2      3      4     -0.3000E+05  WELL_1                1.0000           2.000           3.000    
      3      2      8      4      -8200.      WELL_2                 4.000           5.000           6.000    
 #    layer       row       col    stage        cond       rbot  BoundName

 RIV NO.  LAYER   ROW    COL       STAGE         CONDUCTANCE  BOTTOM EL.      BOUNDARY NAME         
 ---------------------------------------------------------------------------------------------------
      1      1      1     15       104.0          0.1000E+05      100.00                      
      2      1      2     15       104.0          0.1000E+05      100.00      RIV2            
      3      1      3     15       104.0          0.1000E+05      100.00      RIV3            
      4      1      4     15       104.0          0.1000E+05      100.00                      
      5      1      5     15       104.0          0.1000E+05      100.00                      
      6      1      6     15       104.0          0.1000E+05      100.00                      
      7      1      7     15       104.0          0.1000E+05      100.00      RIVX            
      8      1      8     15       104.0          0.1000E+05      100.00      RIVX            
      9      1      9     15       104.0          0.1000E+05      100.00      RIVX            
     10      1     10     15       104.0          0.1000E+05      100.00                      
     11      2      1     15       104.0          0.1000E+05      100.00                      
     12      2      2     15       104.0          0.1000E+05      100.00      RIV2            
     13      2      3     15       104.0          0.1000E+05      100.00      RIV3            
     14      2      4     15       104.0          0.1000E+05      100.00                      
     15      2      5     15       104.0          0.1000E+05      100.00                      
     16      2      6     15       104.0          0.1000E+05      100.00                      
     17      2      7     15       104.0          0.1000E+05      100.00      RIVX            
     18      2      8     15       104.0          0.1000E+05      100.00      RIVX            
     19      2      9     15       104.0          0.1000E+05      100.00      RIVX            
     20      2     10     15       104.0          0.1000E+05      100.00                      

 GHB NO.  LAYER   ROW    COL       STAGE         CONDUCTANCE  BOUNDARY NAME         
 -----------------------------------------------------------------------------------
      1      1      3      1      100.00           1503.                      
      2      1      7      1       110.0           1403.      GHB2_UPPER      
      3      1      7      1       85.00           503.0      GHB2_LOWER      

 REUSING RCHS FROM LAST STRESS PERIOD

 REUSING EVTS FROM LAST STRESS PERIOD

 REUSING CHDS FROM LAST STRESS PERIOD
WEL   no.    2 value from time series:  -30000.     for time:  3.000     to  3.200    
WEL   no.    3 value from time series:  -6200.0     for time:  3.000     to  3.200    
RIV   no.    1 value from time series:   104.90     for time:  3.000     to  3.200    
RIV   no.    2 value from time series:   104.90     for time:  3.000     to  3.200    
RIV   no.    3 value from time series:   104.90     for time:  3.000     to  3.200    
RIV   no.    4 value from time series:   104.90     for time:  3.000     to  3.200    
RIV   no.    5 value from time series:   104.90     for time:  3.000     to  3.200    
RIV   no.    6 value from time series:   104.90     for time:  3.000     to  3.200    
RIV   no.    7 value from time series:   104.90     for time:  3.000     to  3.200    
RIV   no.    8 value from time series:   104.90     for time:  3.000     to  3.200    
RIV   no.    9 value from time series:   104.90     for time:  3.000     to  3.200    
RIV   no.   10 value from time series:   104.90     for time:  3.000     to  3.200    
RIV   no.   11 value from time series:   104.90     for time:  3.000     to  3.200    
RIV   no.   12 value from time series:   104.90     for time:  3.000     to  3.200    
RIV   no.   13 value from time series:   104.90     for time:  3.000     to  3.200    
RIV   no.   14 value from time series:   104.90     for time:  3.000     to  3.200    
RIV   no.   15 value from time series:   104.90     for time:  3.000     to  3.200    
RIV   no.   16 value from time series:   104.90     for time:  3.000     to  3.200    
RIV   no.   17 value from time series:   104.90     for time:  3.000     to  3.200    
RIV   no.   18 value from time series:   104.90     for time:  3.000     to  3.200    
RIV   no.   19 value from time series:   104.90     for time:  3.000     to  3.200    
RIV   no.   20 value from time series:   104.90     for time:  3.000     to  3.200    
EVT   no.    1 value from time series:   852.19     for time:  3.000     to  3.200    
EVT   no.    2 value from time series:   1704.4     for time:  3.000     to  3.200    
EVT   no.    3 value from time series:   2556.6     for time:  3.000     to  3.200    
EVT   no.    4 value from time series:   3408.8     for time:  3.000     to  3.200    
EVT   no.   10 value from time series:   426.09     for time:  3.000     to  3.200    
EVT   no.   11 value from time series:   852.19     for time:  3.000     to  3.200    
EVT   no.   12 value from time series:   1704.4     for time:  3.000     to  3.200    
EVT   no.   13 value from time series:   2556.6     for time:  3.000     to  3.200    
EVT   no.   14 value from time series:   3408.8     for time:  3.000     to  3.200    
EVT   no.   20 value from time series:   426.09     for time:  3.000     to  3.200    
WEL   no.    2 value from time series:  -30000.     for time:  3.000     to  3.200    
WEL   no.    3 value from time series:  -6200.0     for time:  3.000     to  3.200    
RIV   no.    1 value from time series:   104.90     for time:  3.000     to  3.200    
RIV   no.    2 value from time series:   104.90     for time:  3.000     to  3.200    
RIV   no.    3 value from time series:   104.90     for time:  3.000     to  3.200    
RIV   no.    4 value from time series:   104.90     for time:  3.000     to  3.200    
RIV   no.    5 value from time series:   104.90     for time:  3.000     to  3.200    
RIV   no.    6 value from time series:   104.90     for time:  3.000     to  3.200    
RIV   no.    7 value from time series:   104.90     for time:  3.000     to  3.200    
RIV   no.    8 value from time series:   104.90     for time:  3.000     to  3.200    
RIV   no.    9 value from time series:   104.90     for time:  3.000     to  3.200    
RIV   no.   10 value from time series:   104.90     for time:  3.000     to  3.200    
RIV   no.   11 value from time series:   104.90     for time:  3.000     to  3.200    
RIV   no.   12 value from time series:   104.90     for time:  3.000     to  3.200    
RIV   no.   13 value from time series:   104.90     for time:  3.000     to  3.200    
RIV   no.   14 value from time series:   104.90     for time:  3.000     to  3.200    
RIV   no.   15 value from time series:   104.90     for time:  3.000     to  3.200    
RIV   no.   16 value from time series:   104.90     for time:  3.000     to  3.200    
RIV   no.   17 value from time series:   104.90     for time:  3.000     to  3.200    
RIV   no.   18 value from time series:   104.90     for time:  3.000     to  3.200    
RIV   no.   19 value from time series:   104.90     for time:  3.000     to  3.200    
RIV   no.   20 value from time series:   104.90     for time:  3.000     to  3.200    
EVT   no.    1 value from time series:   852.19     for time:  3.000     to  3.200    
EVT   no.    2 value from time series:   1704.4     for time:  3.000     to  3.200    
EVT   no.    3 value from time series:   2556.6     for time:  3.000     to  3.200    
EVT   no.    4 value from time series:   3408.8     for time:  3.000     to  3.200    
EVT   no.   10 value from time series:   426.09     for time:  3.000     to  3.200    
EVT   no.   11 value from time series:   852.19     for time:  3.000     to  3.200    
EVT   no.   12 value from time series:   1704.4     for time:  3.000     to  3.200    
EVT   no.   13 value from time series:   2556.6     for time:  3.000     to  3.200    
EVT   no.   14 value from time series:   3408.8     for time:  3.000     to  3.200    
EVT   no.   20 value from time series:   426.09     for time:  3.000     to  3.200    

 OUTPUT CONTROL FOR STRESS PERIOD    3   TIME STEP    1
    SAVE BUDGET
    SAVE HEAD
    SAVE HEAD FOR ALL LAYERS
 UBDSV1 SAVING      STORAGE(SS) ON UNIT   1017 AT TIME STEP      1, STRESS PERIOD      3
 UBDSV1 SAVING      STORAGE(SY) ON UNIT   1017 AT TIME STEP      1, STRESS PERIOD      3
 UBDSV1 SAVING FLOW RIGHT FACE  ON UNIT   1017 AT TIME STEP      1, STRESS PERIOD      3
 UBDSV1 SAVING FLOW FRONT FACE  ON UNIT   1017 AT TIME STEP      1, STRESS PERIOD      3
 UBDSV1 SAVING FLOW LOWER FACE  ON UNIT   1017 AT TIME STEP      1, STRESS PERIOD      3
 UBDSV4 SAVING WELLS NEAR RIVER ON UNIT   1017 AT TIME STEP      1, STRESS PERIOD      3

 WELLS NEAR RIVER   PERIOD  3   STEP  1
 BOUNDARY      1   LAYER   1   ROW     2   COL     3   RATE    -50.0000    
 BOUNDARY      2   LAYER   2   ROW     3   COL     4   RATE    -30000.0      WELL_1
 BOUNDARY      3   LAYER   2   ROW     8   COL     4   RATE    -6200.00      WELL_2
 UBDSV4 SAVING RIVER            ON UNIT   1017 AT TIME STEP      1, STRESS PERIOD      3

 RIVER              PERIOD  3   STEP  1
 BOUNDARY      1   LAYER   1   ROW     1   COL    15   RATE     23999.3    
 BOUNDARY      2   LAYER   1   ROW     2   COL    15   RATE     24017.1      RIV2
 BOUNDARY      3   LAYER   1   ROW     3   COL    15   RATE     24043.9      RIV3
 BOUNDARY      4   LAYER   1   ROW     4   COL    15   RATE     24071.8    
 BOUNDARY      5   LAYER   1   ROW     5   COL    15   RATE     24093.4    
 BOUNDARY      6   LAYER   1   ROW     6   COL    15   RATE     24094.0    
 BOUNDARY      7   LAYER   1   ROW     7   COL    15   RATE     24073.2      RIVX
 BOUNDARY      8   LAYER   1   ROW     8   COL    15   RATE     24042.3      RIVX
 BOUNDARY      9   LAYER   1   ROW     9   COL    15   RATE     24010.0      RIVX
 BOUNDARY     10   LAYER   1   ROW    10   COL    15   RATE     23987.0    
 BOUNDARY     11   LAYER   2   ROW     1   COL    15   RATE     425.586    
 BOUNDARY     12   LAYER   2   ROW     2   COL    15   RATE     431.628      RIV2
 BOUNDARY     13   LAYER   2   ROW     3   COL    15   RATE     441.299      RIV3
 BOUNDARY     14   LAYER   2   ROW     4   COL    15   RATE     451.224    
 BOUNDARY     15   LAYER   2   ROW     5   COL    15   RATE     457.781    
 BOUNDARY     16   LAYER   2   ROW     6   COL    15   RATE     457.611    
 BOUNDARY     17   LAYER   2   ROW     7   COL    15   RATE     450.467      RIVX
 BOUNDARY     18   LAYER   2   ROW     8   COL    15   RATE     439.223      RIVX
 BOUNDARY     19   LAYER   2   ROW     9   COL    15   RATE     427.810      RIVX
 BOUNDARY     20   LAYER   2   ROW    10   COL    15   RATE     420.440    

 GHB LAKES          PERIOD  3   STEP  1
 BOUNDARY      1   LAYER   1   ROW     3   COL     1   RATE    -7863.76    
 BOUNDARY      2   LAYER   1   ROW     7   COL     1   RATE     4375.06      GHB2_UPPER
 BOUNDARY      3   LAYER   1   ROW     7   COL     1   RATE    -11006.5      GHB2_LOWER
 UBDSV4 SAVING RECHARGE         ON UNIT   1017 AT TIME STEP      1, STRESS PERIOD      3

 RECHARGE           PERIOD  3   STEP  1
 BOUNDARY      2   LAYER   1   ROW     1   COL     2   RATE     750.000    
 BOUNDARY      3   LAYER   1   ROW     1   COL     3   RATE     750.000    
 BOUNDARY      4   LAYER   1   ROW     1   COL     4   RATE     750.000    
 BOUNDARY      5   LAYER   1   ROW     1   COL     5   RATE     750.000    
 BOUNDARY      6   LAYER   1   ROW     1   COL     6   RATE     750.000    
 BOUNDARY      7   LAYER   1   ROW     1   COL     7   RATE     750.000    
 BOUNDARY      8   LAYER   1   ROW     1   COL     8   RATE     750.000    
 BOUNDARY      9   LAYER   1   ROW     1   COL     9   RATE     750.000    
 BOUNDARY     10   LAYER   1   ROW     1   COL    10   RATE     750.000    
 BOUNDARY     11   LAYER   1   ROW     1   COL    11   RATE     750.000    
 BOUNDARY     12   LAYER   1   ROW     1   COL    12   RATE     750.000    
 BOUNDARY     13   LAYER   1   ROW     1   COL    13   RATE     750.000    
 BOUNDARY     14   LAYER   1   ROW     1   COL    14   RATE     750.000    
 BOUNDARY     15   LAYER   1   ROW     1   COL    15   RATE     750.000    
 BOUNDARY     16   LAYER   1   ROW     2   COL     1   RATE     750.000    
 BOUNDARY     17   LAYER   1   ROW     2   COL     2   RATE     750.000    
 BOUNDARY     18   LAYER   1   ROW     2   COL     3   RATE     750.000    
 BOUNDARY     19   LAYER   1   ROW     2   COL     4   RATE     750.000    
 BOUNDARY     20   LAYER   1   ROW     2   COL     5   RATE     750.000    
 BOUNDARY     21   LAYER   1   ROW     2   COL     6   RATE     750.000    
 BOUNDARY     22   LAYER   1   ROW     2   COL     7   RATE     750.000    
 BOUNDARY     23   LAYER   1   ROW     2   COL     8   RATE     750.000    
 BOUNDARY     24   LAYER   1   ROW     2   COL     9   RATE     750.000    
 BOUNDARY     25   LAYER   1   ROW     2   COL    10   RATE     750.000    
 BOUNDARY     26   LAYER   1   ROW     2   COL    11   RATE     750.000    
 BOUNDARY     27   LAYER   1   ROW     2   COL    12   RATE     750.000    
 BOUNDARY     28   LAYER   1   ROW     2   COL    13   RATE     750.000    
 BOUNDARY     29   LAYER   1   ROW     2   COL    14   RATE     750.000    
 BOUNDARY     30   LAYER   1   ROW     2   COL    15   RATE     750.000    
 BOUNDARY     31   LAYER   1   ROW     3   COL     1   RATE     750.000    
 BOUNDARY     32   LAYER   1   ROW     3   COL     2   RATE     750.000    
 BOUNDARY     33   LAYER   1   ROW     3   COL     3   RATE     750.000    
 BOUNDARY     34   LAYER   1   ROW     3   COL     4   RATE     750.000    
 BOUNDARY     35   LAYER   1   ROW     3   COL     5   RATE     750.000    
 BOUNDARY     36   LAYER   1   ROW     3   COL     6   RATE     750.000    
 BOUNDARY     37   LAYER   1   ROW     3   COL     7   RATE     750.000    
 BOUNDARY     38   LAYER   1   ROW     3   COL     8   RATE     750.000    
 BOUNDARY     39   LAYER   1   ROW     3   COL     9   RATE     750.000    
 BOUNDARY     40   LAYER   1   ROW     3   COL    10   RATE     750.000    
 BOUNDARY     41   LAYER   1   ROW     3   COL    11   RATE     750.000    
 BOUNDARY     42   LAYER   1   ROW     3   COL    12   RATE     750.000    
 BOUNDARY     43   LAYER   1   ROW     3   COL    13   RATE     750.000    
 BOUNDARY     44   LAYER   1   ROW     3   COL    14   RATE     750.000    
 BOUNDARY     45   LAYER   1   ROW     3   COL    15   RATE     750.000    
 BOUNDARY     47   LAYER   1   ROW     4   COL     2   RATE     750.000    
 BOUNDARY     48   LAYER   1   ROW     4   COL     3   RATE     750.000    
 BOUNDARY     49   LAYER   1   ROW     4   COL     4   RATE     750.000    
 BOUNDARY     50   LAYER   1   ROW     4   COL     5   RATE     750.000    
 BOUNDARY     51   LAYER   1   ROW     4   COL     6   RATE     750.000    
 BOUNDARY     52   LAYER   1   ROW     4   COL     7   RATE     750.000    
 BOUNDARY     53   LAYER   1   ROW     4   COL     8   RATE     750.000    
 BOUNDARY     54   LAYER   1   ROW     4   COL     9   RATE     750.000    
 BOUNDARY     55   LAYER   1   ROW     4   COL    10   RATE     750.000    
 BOUNDARY     56   LAYER   1   ROW     4   COL    11   RATE     750.000    
 BOUNDARY     57   LAYER   1   ROW     4   COL    12   RATE     750.000    
 BOUNDARY     58   LAYER   1   ROW     4   COL    13   RATE     750.000    
 BOUNDARY     59   LAYER   1   ROW     4   COL    14   RATE     750.000    
 BOUNDARY     60   LAYER   1   ROW     4   COL    15   RATE     750.000    
 BOUNDARY     62   LAYER   1   ROW     5   COL     2   RATE     750.000    
 BOUNDARY     63   LAYER   1   ROW     5   COL     3   RATE     750.000    
 BOUNDARY     64   LAYER   1   ROW     5   COL     4   RATE     750.000    
 BOUNDARY     65   LAYER   1   ROW     5   COL     5   RATE     750.000    
 BOUNDARY     66   LAYER   1   ROW     5   COL     6   RATE     750.000    
 BOUNDARY     67   LAYER   1   ROW     5   COL     7   RATE     750.000    
 BOUNDARY     68   LAYER   1   ROW     5   COL     8   RATE     750.000    
 BOUNDARY     69   LAYER   1   ROW     5   COL     9   RATE     750.000    
 BOUNDARY     70   LAYER   1   ROW     5   COL    10   RATE     750.000    
 BOUNDARY     71   LAYER   1   ROW     5   COL    11   RATE     750.000    
 BOUNDARY     72   LAYER   1   ROW     5   COL    12   RATE     750.000    
 BOUNDARY     73   LAYER   1   ROW     5   COL    13   RATE     750.000    
 BOUNDARY     74   LAYER   1   ROW     5   COL    14   RATE     750.000    
 BOUNDARY     75   LAYER   1   ROW     5   COL    15   RATE     750.000    
 BOUNDARY     77   LAYER   1   ROW     6   COL     2   RATE     750.000    
 BOUNDARY     78   LAYER   1   ROW     6   COL     3   RATE     750.000    
 BOUNDARY     79   LAYER   1   ROW     6   COL     4   RATE     750.000    
 BOUNDARY     80   LAYER   1   ROW     6   COL     5   RATE     750.000    
 BOUNDARY     81   LAYER   1   ROW     6   COL     6   RATE     750.000    
 BOUNDARY     82   LAYER   1   ROW     6   COL     7   RATE     750.000    
 BOUNDARY     83   LAYER   1   ROW     6   COL     8   RATE     750.000    
 BOUNDARY     84   LAYER   1   ROW     6   COL     9   RATE     750.000    
 BOUNDARY     85   LAYER   1   ROW     6   COL    10   RATE     750.000    
 BOUNDARY     86   LAYER   1   ROW     6   COL    11   RATE     750.000    
 BOUNDARY     87   LAYER   1   ROW     6   COL    12   RATE     750.000    
 BOUNDARY     88   LAYER   1   ROW     6   COL    13   RATE     750.000    
 BOUNDARY     89   LAYER   1   ROW     6   COL    14   RATE     750.000    
 BOUNDARY     90   LAYER   1   ROW     6   COL    15   RATE     750.000    
 BOUNDARY     91   LAYER   1   ROW     7   COL     1   RATE     750.000    
 BOUNDARY     92   LAYER   1   ROW     7   COL     2   RATE     750.000    
 BOUNDARY     93   LAYER   1   ROW     7   COL     3   RATE     750.000    
 BOUNDARY     94   LAYER   1   ROW     7   COL     4   RATE     750.000    
 BOUNDARY     95   LAYER   1   ROW     7   COL     5   RATE     750.000    
 BOUNDARY     96   LAYER   1   ROW     7   COL     6   RATE     750.000    
 BOUNDARY     97   LAYER   1   ROW     7   COL     7   RATE     750.000    
 BOUNDARY     98   LAYER   1   ROW     7   COL     8   RATE     750.000    
 BOUNDARY     99   LAYER   1   ROW     7   COL     9   RATE     750.000    
 BOUNDARY    100   LAYER   1   ROW     7   COL    10   RATE     750.000    
 BOUNDARY    101   LAYER   1   ROW     7   COL    11   RATE     750.000    
 BOUNDARY    102   LAYER   1   ROW     7   COL    12   RATE     750.000    
 BOUNDARY    103   LAYER   1   ROW     7   COL    13   RATE     750.000    
 BOUNDARY    104   LAYER   1   ROW     7   COL    14   RATE     750.000    
 BOUNDARY    105   LAYER   1   ROW     7   COL    15   RATE     750.000    
 BOUNDARY    106   LAYER   1   ROW     8   COL     1   RATE     750.000    
 BOUNDARY    107   LAYER   1   ROW     8   COL     2   RATE     750.000    
 BOUNDARY    108   LAYER   1   ROW     8   COL     3   RATE     750.000    
 BOUNDARY    109   LAYER   1   ROW     8   COL     4   RATE     750.000    
 BOUNDARY    110   LAYER   1   ROW     8   COL     5   RATE     750.000    
 BOUNDARY    111   LAYER   1   ROW     8   COL     6   RATE     750.000    
 BOUNDARY    112   LAYER   1   ROW     8   COL     7   RATE     750.000    
 BOUNDARY    113   LAYER   1   ROW     8   COL     8   RATE     750.000    
 BOUNDARY    114   LAYER   1   ROW     8   COL     9   RATE     750.000    
 BOUNDARY    115   LAYER   1   ROW     8   COL    10   RATE     750.000    
 BOUNDARY    116   LAYER   1   ROW     8   COL    11   RATE     750.000    
 BOUNDARY    117   LAYER   1   ROW     8   COL    12   RATE     750.000    
 BOUNDARY    118   LAYER   1   ROW     8   COL    13   RATE     750.000    
 BOUNDARY    119   LAYER   1   ROW     8   COL    14   RATE     750.000    
 BOUNDARY    120   LAYER   1   ROW     8   COL    15   RATE     750.000    
 BOUNDARY    121   LAYER   1   ROW     9   COL     1   RATE     750.000    
 BOUNDARY    122   LAYER   1   ROW     9   COL     2   RATE     750.000    
 BOUNDARY    123   LAYER   1   ROW     9   COL     3   RATE     750.000    
 BOUNDARY    124   LAYER   1   ROW     9   COL     4   RATE     750.000    
 BOUNDARY    125   LAYER   1   ROW     9   COL     5   RATE     750.000    
 BOUNDARY    126   LAYER   1   ROW     9   COL     6   RATE     750.000    
 BOUNDARY    127   LAYER   1   ROW     9   COL     7   RATE     750.000    
 BOUNDARY    128   LAYER   1   ROW     9   COL     8   RATE     750.000    
 BOUNDARY    129   LAYER   1   ROW     9   COL     9   RATE     750.000    
 BOUNDARY    130   LAYER   1   ROW     9   COL    10   RATE     750.000    
 BOUNDARY    131   LAYER   1   ROW     9   COL    11   RATE     750.000    
 BOUNDARY    132   LAYER   1   ROW     9   COL    12   RATE     750.000    
 BOUNDARY    133   LAYER   1   ROW     9   COL    13   RATE     750.000    
 BOUNDARY    134   LAYER   1   ROW     9   COL    14   RATE     750.000    
 BOUNDARY    135   LAYER   1   ROW     9   COL    15   RATE     750.000    
 BOUNDARY    137   LAYER   1   ROW    10   COL     2   RATE     750.000    
 BOUNDARY    138   LAYER   1   ROW    10   COL     3   RATE     750.000    
 BOUNDARY    139   LAYER   1   ROW    10   COL     4   RATE     750.000    
 BOUNDARY    140   LAYER   1   ROW    10   COL     5   RATE     750.000    
 BOUNDARY    141   LAYER   1   ROW    10   COL     6   RATE     750.000    
 BOUNDARY    142   LAYER   1   ROW    10   COL     7   RATE     750.000    
 BOUNDARY    143   LAYER   1   ROW    10   COL     8   RATE     750.000    
 BOUNDARY    144   LAYER   1   ROW    10   COL     9   RATE     750.000    
 BOUNDARY    145   LAYER   1   ROW    10   COL    10   RATE     750.000    
 BOUNDARY    146   LAYER   1   ROW    10   COL    11   RATE     750.000    
 BOUNDARY    147   LAYER   1   ROW    10   COL    12   RATE     750.000    
 BOUNDARY    148   LAYER   1   ROW    10   COL    13   RATE     750.000    
 BOUNDARY    149   LAYER   1   ROW    10   COL    14   RATE     750.000    
 BOUNDARY    150   LAYER   1   ROW    10   COL    15   RATE     750.000    
 UBDSV4 SAVING ET SEGS          ON UNIT   1017 AT TIME STEP      1, STRESS PERIOD      3

 ET SEGS            PERIOD  3   STEP  1
 BOUNDARY      1   LAYER   1   ROW     1   COL    13   RATE    -65.7545      ET-1
 BOUNDARY      2   LAYER   1   ROW     2   COL    13   RATE    -124.366      ET-2
 BOUNDARY      3   LAYER   1   ROW     3   COL    13   RATE    -171.943      ET-3
 BOUNDARY      4   LAYER   1   ROW     4   COL    13   RATE    -209.150      ET-4
 BOUNDARY      5   LAYER   1   ROW     5   COL    13   RATE    -278.734      ET-5
 BOUNDARY      6   LAYER   1   ROW     6   COL    13   RATE    -277.872      ET-6
 BOUNDARY      7   LAYER   1   ROW     7   COL    13   RATE    -212.226      ET-7
 BOUNDARY      8   LAYER   1   ROW     8   COL    13   RATE    -168.068      ET-8
 BOUNDARY      9   LAYER   1   ROW     9   COL    13   RATE    -111.371      ET-9
 BOUNDARY     10   LAYER   1   ROW    10   COL    13   RATE    -34.0444      ET-10
 BOUNDARY     11   LAYER   1   ROW     1   COL    12   RATE    -101.708      ET-1
 BOUNDARY     12   LAYER   1   ROW     2   COL    12   RATE    -177.039      ET-2
 BOUNDARY     13   LAYER   1   ROW     3   COL    12   RATE    -242.097      ET-3
 BOUNDARY     14   LAYER   1   ROW     4   COL    12   RATE    -299.799      ET-4
 BOUNDARY     15   LAYER   1   ROW     5   COL    12   RATE    -406.485      ET-5
 BOUNDARY     16   LAYER   1   ROW     6   COL    12   RATE    -405.589      ET-6
 BOUNDARY     17   LAYER   1   ROW     7   COL    12   RATE    -304.925      ET-7
 BOUNDARY     18   LAYER   1   ROW     8   COL    12   RATE    -236.740      ET-8
 BOUNDARY     19   LAYER   1   ROW     9   COL    12   RATE    -163.039      ET-9
 BOUNDARY     20   LAYER   1   ROW    10   COL    12   RATE    -55.4322      ET-10
 UBDSV4 SAVING CONSTANT HEADS   ON UNIT   1017 AT TIME STEP      1, STRESS PERIOD      3

 CONSTANT HEADS     PERIOD  3   STEP  1
 BOUNDARY      1   LAYER   1   ROW     1   COL     1   RATE     2629.85      CHD-1
 BOUNDARY      2   LAYER   1   ROW     4   COL     1   RATE     4703.40    
 BOUNDARY      3   LAYER   1   ROW     5   COL     1   RATE     827.327      CHD_GP
 BOUNDARY      4   LAYER   1   ROW     6   COL     1   RATE     4315.05      CHD_GP
 BOUNDARY      5   LAYER   1   ROW    10   COL     1   RATE     1777.96      CHD-10

 HEAD WILL BE SAVED ON UNIT 1018 AT END OF TIME STEP    1, STRESS PERIOD    3
WEL   no.    2 value from time series:  -30000.     for time:  3.200     to  3.400    
WEL   no.    3 value from time series:  -6600.0     for time:  3.200     to  3.400    
RIV   no.    1 value from time series:   104.70     for time:  3.200     to  3.400    
RIV   no.    2 value from time series:   104.70     for time:  3.200     to  3.400    
RIV   no.    3 value from time series:   104.70     for time:  3.200     to  3.400    
RIV   no.    4 value from time series:   104.70     for time:  3.200     to  3.400    
RIV   no.    5 value from time series:   104.70     for time:  3.200     to  3.400    
RIV   no.    6 value from time series:   104.70     for time:  3.200     to  3.400    
RIV   no.    7 value from time series:   104.70     for time:  3.200     to  3.400    
RIV   no.    8 value from time series:   104.70     for time:  3.200     to  3.400    
RIV   no.    9 value from time series:   104.70     for time:  3.200     to  3.400    
RIV   no.   10 value from time series:   104.70     for time:  3.200     to  3.400    
RIV   no.   11 value from time series:   104.70     for time:  3.200     to  3.400    
RIV   no.   12 value from time series:   104.70     for time:  3.200     to  3.400    
RIV   no.   13 value from time series:   104.70     for time:  3.200     to  3.400    
RIV   no.   14 value from time series:   104.70     for time:  3.200     to  3.400    
RIV   no.   15 value from time series:   104.70     for time:  3.200     to  3.400    
RIV   no.   16 value from time series:   104.70     for time:  3.200     to  3.400    
RIV   no.   17 value from time series:   104.70     for time:  3.200     to  3.400    
RIV   no.   18 value from time series:   104.70     for time:  3.200     to  3.400    
RIV   no.   19 value from time series:   104.70     for time:  3.200     to  3.400    
RIV   no.   20 value from time series:   104.70     for time:  3.200     to  3.400    
EVT   no.    1 value from time series:   869.06     for time:  3.200     to  3.400    
EVT   no.    2 value from time series:   1738.1     for time:  3.200     to  3.400    
EVT   no.    3 value from time series:   2607.2     for time:  3.200     to  3.400    
EVT   no.    4 value from time series:   3476.2     for time:  3.200     to  3.400    
EVT   no.   10 value from time series:   434.53     for time:  3.200     to  3.400    
EVT   no.   11 value from time series:   869.06     for time:  3.200     to  3.400    
EVT   no.   12 value from time series:   1738.1     for time:  3.200     to  3.400    
EVT   no.   13 value from time series:   2607.2     for time:  3.200     to  3.400    
EVT   no.   14 value from time series:   3476.2     for time:  3.200     to  3.400    
EVT   no.   20 value from time series:   434.53     for time:  3.200     to  3.400    
WEL   no.    2 value from time series:  -30000.     for time:  3.200     to  3.400    
WEL   no.    3 value from time series:  -6600.0     for time:  3.200     to  3.400    
RIV   no.    1 value from time series:   104.70     for time:  3.200     to  3.400    
RIV   no.    2 value from time series:   104.70     for time:  3.200     to  3.400    
RIV   no.    3 value from time series:   104.70     for time:  3.200     to  3.400    
RIV   no.    4 value from time series:   104.70     for time:  3.200     to  3.400    
RIV   no.    5 value from time series:   104.70     for time:  3.200     to  3.400    
RIV   no.    6 value from time series:   104.70     for time:  3.200     to  3.400    
RIV   no.    7 value from time series:   104.70     for time:  3.200     to  3.400    
RIV   no.    8 value from time series:   104.70     for time:  3.200     to  3.400    
RIV   no.    9 value from time series:   104.70     for time:  3.200     to  3.400    
RIV   no.   10 value from time series:   104.70     for time:  3.200     to  3.400    
RIV   no.   11 value from time series:   104.70     for time:  3.200     to  3.400    
RIV   no.   12 value from time series:   104.70     for time:  3.200     to  3.400    
RIV   no.   13 value from time series:   104.70     for time:  3.200     to  3.400    
RIV   no.   14 value from time series:   104.70     for time:  3.200     to  3.400    
RIV   no.   15 value from time series:   104.70     for time:  3.200     to  3.400    
RIV   no.   16 value from time series:   104.70     for time:  3.200     to  3.400    
RIV   no.   17 value from time series:   104.70     for time:  3.200     to  3.400    
RIV   no.   18 value from time series:   104.70     for time:  3.200     to  3.400    
RIV   no.   19 value from time series:   104.70     for time:  3.200     to  3.400    
RIV   no.   20 value from time series:   104.70     for time:  3.200     to  3.400    
EVT   no.    1 value from time series:   869.06     for time:  3.200     to  3.400    
EVT   no.    2 value from time series:   1738.1     for time:  3.200     to  3.400    
EVT   no.    3 value from time series:   2607.2     for time:  3.200     to  3.400    
EVT   no.    4 value from time series:   3476.2     for time:  3.200     to  3.400    
EVT   no.   10 value from time series:   434.53     for time:  3.200     to  3.400    
EVT   no.   11 value from time series:   869.06     for time:  3.200     to  3.400    
EVT   no.   12 value from time series:   1738.1     for time:  3.200     to  3.400    
EVT   no.   13 value from time series:   2607.2     for time:  3.200     to  3.400    
EVT   no.   14 value from time series:   3476.2     for time:  3.200     to  3.400    
EVT   no.   20 value from time series:   434.53     for time:  3.200     to  3.400    

 OUTPUT CONTROL FOR STRESS PERIOD    3   TIME STEP    2
    SAVE BUDGET
    SAVE HEAD
    SAVE HEAD FOR ALL LAYERS
 UBDSV1 SAVING      STORAGE(SS) ON UNIT   1017 AT TIME STEP      2, STRESS PERIOD      3
 UBDSV1 SAVING      STORAGE(SY) ON UNIT   1017 AT TIME STEP      2, STRESS PERIOD      3
 UBDSV1 SAVING FLOW RIGHT FACE  ON UNIT   1017 AT TIME STEP      2, STRESS PERIOD      3
 UBDSV1 SAVING FLOW FRONT FACE  ON UNIT   1017 AT TIME STEP      2, STRESS PERIOD      3
 UBDSV1 SAVING FLOW LOWER FACE  ON UNIT   1017 AT TIME STEP      2, STRESS PERIOD      3
 UBDSV4 SAVING WELLS NEAR RIVER ON UNIT   1017 AT TIME STEP      2, STRESS PERIOD      3

 WELLS NEAR RIVER   PERIOD  3   STEP  2
 BOUNDARY      1   LAYER   1   ROW     2   COL     3   RATE    -50.0000    
 BOUNDARY      2   LAYER   2   ROW     3   COL     4   RATE    -30000.0      WELL_1
 BOUNDARY      3   LAYER   2   ROW     8   COL     4   RATE    -6600.00      WELL_2
 UBDSV4 SAVING RIVER            ON UNIT   1017 AT TIME STEP      2, STRESS PERIOD      3

 RIVER              PERIOD  3   STEP  2
 BOUNDARY      1   LAYER   1   ROW     1   COL    15   RATE     20279.2    
 BOUNDARY      2   LAYER   1   ROW     2   COL    15   RATE     20297.0      RIV2
 BOUNDARY      3   LAYER   1   ROW     3   COL    15   RATE     20323.7      RIV3
 BOUNDARY      4   LAYER   1   ROW     4   COL    15   RATE     20351.5    
 BOUNDARY      5   LAYER   1   ROW     5   COL    15   RATE     20373.1    
 BOUNDARY      6   LAYER   1   ROW     6   COL    15   RATE     20373.7    
 BOUNDARY      7   LAYER   1   ROW     7   COL    15   RATE     20353.0      RIVX
 BOUNDARY      8   LAYER   1   ROW     8   COL    15   RATE     20322.2      RIVX
 BOUNDARY      9   LAYER   1   ROW     9   COL    15   RATE     20290.0      RIVX
 BOUNDARY     10   LAYER   1   ROW    10   COL    15   RATE     20267.0    
 BOUNDARY     11   LAYER   2   ROW     1   COL    15   RATE     93.5094    
 BOUNDARY     12   LAYER   2   ROW     2   COL    15   RATE     96.0668      RIV2
 BOUNDARY     13   LAYER   2   ROW     3   COL    15   RATE     100.119      RIV3
 BOUNDARY     14   LAYER   2   ROW     4   COL    15   RATE     104.304    
 BOUNDARY     15   LAYER   2   ROW     5   COL    15   RATE     107.167    
 BOUNDARY     16   LAYER   2   ROW     6   COL    15   RATE     107.143    
 BOUNDARY     17   LAYER   2   ROW     7   COL    15   RATE     104.125      RIVX
 BOUNDARY     18   LAYER   2   ROW     8   COL    15   RATE     99.4146      RIVX
 BOUNDARY     19   LAYER   2   ROW     9   COL    15   RATE     94.6068      RIVX
 BOUNDARY     20   LAYER   2   ROW    10   COL    15   RATE     91.4436    

 GHB LAKES          PERIOD  3   STEP  2
 BOUNDARY      1   LAYER   1   ROW     3   COL     1   RATE    -7870.52    
 BOUNDARY      2   LAYER   1   ROW     7   COL     1   RATE     4369.13      GHB2_UPPER
 BOUNDARY      3   LAYER   1   ROW     7   COL     1   RATE    -11008.6      GHB2_LOWER
 UBDSV4 SAVING RECHARGE         ON UNIT   1017 AT TIME STEP      2, STRESS PERIOD      3

 RECHARGE           PERIOD  3   STEP  2
 BOUNDARY      2   LAYER   1   ROW     1   COL     2   RATE     750.000    
 BOUNDARY      3   LAYER   1   ROW     1   COL     3   RATE     750.000    
 BOUNDARY      4   LAYER   1   ROW     1   COL     4   RATE     750.000    
 BOUNDARY      5   LAYER   1   ROW     1   COL     5   RATE     750.000    
 BOUNDARY      6   LAYER   1   ROW     1   COL     6   RATE     750.000    
 BOUNDARY      7   LAYER   1   ROW     1   COL     7   RATE     750.000    
 BOUNDARY      8   LAYER   1   ROW     1   COL     8   RATE     750.000    
 BOUNDARY      9   LAYER   1   ROW     1   COL     9   RATE     750.000    
 BOUNDARY     10   LAYER   1   ROW     1   COL    10   RATE     750.000    
 BOUNDARY     11   LAYER   1   ROW     1   COL    11   RATE     750.000    
 BOUNDARY     12   LAYER   1   ROW     1   COL    12   RATE     750.000    
 BOUNDARY     13   LAYER   1   ROW     1   COL    13   RATE     750.000    
 BOUNDARY     14   LAYER   1   ROW     1   COL    14   RATE     750.000    
 BOUNDARY     15   LAYER   1   ROW     1   COL    15   RATE     750.000    
 BOUNDARY     16   LAYER   1   ROW     2   COL     1   RATE     750.000    
 BOUNDARY     17   LAYER   1   ROW     2   COL     2   RATE     750.000    
 BOUNDARY     18   LAYER   1   ROW     2   COL     3   RATE     750.000    
 BOUNDARY     19   LAYER   1   ROW     2   COL     4   RATE     750.000    
 BOUNDARY     20   LAYER   1   ROW     2   COL     5   RATE     750.000    
 BOUNDARY     21   LAYER   1   ROW     2   COL     6   RATE     750.000    
 BOUNDARY     22   LAYER   1   ROW     2   COL     7   RATE     750.000    
 BOUNDARY     23   LAYER   1   ROW     2   COL     8   RATE     750.000    
 BOUNDARY     24   LAYER   1   ROW     2   COL     9   RATE     750.000    
 BOUNDARY     25   LAYER   1   ROW     2   COL    10   RATE     750.000    
 BOUNDARY     26   LAYER   1   ROW     2   COL    11   RATE     750.000    
 BOUNDARY     27   LAYER   1   ROW     2   COL    12   RATE     750.000    
 BOUNDARY     28   LAYER   1   ROW     2   COL    13   RATE     750.000    
 BOUNDARY     29   LAYER   1   ROW     2   COL    14   RATE     750.000    
 BOUNDARY     30   LAYER   1   ROW     2   COL    15   RATE     750.000    
 BOUNDARY     31   LAYER   1   ROW     3   COL     1   RATE     750.000    
 BOUNDARY     32   LAYER   1   ROW     3   COL     2   RATE     750.000    
 BOUNDARY     33   LAYER   1   ROW     3   COL     3   RATE     750.000    
 BOUNDARY     34   LAYER   1   ROW     3   COL     4   RATE     750.000    
 BOUNDARY     35   LAYER   1   ROW     3   COL     5   RATE     750.000    
 BOUNDARY     36   LAYER   1   ROW     3   COL     6   RATE     750.000    
 BOUNDARY     37   LAYER   1   ROW     3   COL     7   RATE     750.000    
 BOUNDARY     38   LAYER   1   ROW     3   COL     8   RATE     750.000    
 BOUNDARY     39   LAYER   1   ROW     3   COL     9   RATE     750.000    
 BOUNDARY     40   LAYER   1   ROW     3   COL    10   RATE     750.000    
 BOUNDARY     41   LAYER   1   ROW     3   COL    11   RATE     750.000    
 BOUNDARY     42   LAYER   1   ROW     3   COL    12   RATE     750.000    
 BOUNDARY     43   LAYER   1   ROW     3   COL    13   RATE     750.000    
 BOUNDARY     44   LAYER   1   ROW     3   COL    14   RATE     750.000    
 BOUNDARY     45   LAYER   1   ROW     3   COL    15   RATE     750.000    
 BOUNDARY     47   LAYER   1   ROW     4   COL     2   RATE     750.000    
 BOUNDARY     48   LAYER   1   ROW     4   COL     3   RATE     750.000    
 BOUNDARY     49   LAYER   1   ROW     4   COL     4   RATE     750.000    
 BOUNDARY     50   LAYER   1   ROW     4   COL     5   RATE     750.000    
 BOUNDARY     51   LAYER   1   ROW     4   COL     6   RATE     750.000    
 BOUNDARY     52   LAYER   1   ROW     4   COL     7   RATE     750.000    
 BOUNDARY     53   LAYER   1   ROW     4   COL     8   RATE     750.000    
 BOUNDARY     54   LAYER   1   ROW     4   COL     9   RATE     750.000    
 BOUNDARY     55   LAYER   1   ROW     4   COL    10   RATE     750.000    
 BOUNDARY     56   LAYER   1   ROW     4   COL    11   RATE     750.000    
 BOUNDARY     57   LAYER   1   ROW     4   COL    12   RATE     750.000    
 BOUNDARY     58   LAYER   1   ROW     4   COL    13   RATE     750.000    
 BOUNDARY     59   LAYER   1   ROW     4   COL    14   RATE     750.000    
 BOUNDARY     60   LAYER   1   ROW     4   COL    15   RATE     750.000    
 BOUNDARY     62   LAYER   1   ROW     5   COL     2   RATE     750.000    
 BOUNDARY     63   LAYER   1   ROW     5   COL     3   RATE     750.000    
 BOUNDARY     64   LAYER   1   ROW     5   COL     4   RATE     750.000    
 BOUNDARY     65   LAYER   1   ROW     5   COL     5   RATE     750.000    
 BOUNDARY     66   LAYER   1   ROW     5   COL     6   RATE     750.000    
 BOUNDARY     67   LAYER   1   ROW     5   COL     7   RATE     750.000    
 BOUNDARY     68   LAYER   1   ROW     5   COL     8   RATE     750.000    
 BOUNDARY     69   LAYER   1   ROW     5   COL     9   RATE     750.000    
 BOUNDARY     70   LAYER   1   ROW     5   COL    10   RATE     750.000    
 BOUNDARY     71   LAYER   1   ROW     5   COL    11   RATE     750.000    
 BOUNDARY     72   LAYER   1   ROW     5   COL    12   RATE     750.000    
 BOUNDARY     73   LAYER   1   ROW     5   COL    13   RATE     750.000    
 BOUNDARY     74   LAYER   1   ROW     5   COL    14   RATE     750.000    
 BOUNDARY     75   LAYER   1   ROW     5   COL    15   RATE     750.000    
 BOUNDARY     77   LAYER   1   ROW     6   COL     2   RATE     750.000    
 BOUNDARY     78   LAYER   1   ROW     6   COL     3   RATE     750.000    
 BOUNDARY     79   LAYER   1   ROW     6   COL     4   RATE     750.000    
 BOUNDARY     80   LAYER   1   ROW     6   COL     5   RATE     750.000    
 BOUNDARY     81   LAYER   1   ROW     6   COL     6   RATE     750.000    
 BOUNDARY     82   LAYER   1   ROW     6   COL     7   RATE     750.000    
 BOUNDARY     83   LAYER   1   ROW     6   COL     8   RATE     750.000    
 BOUNDARY     84   LAYER   1   ROW     6   COL     9   RATE     750.000    
 BOUNDARY     85   LAYER   1   ROW     6   COL    10   RATE     750.000    
 BOUNDARY     86   LAYER   1   ROW     6   COL    11   RATE     750.000    
 BOUNDARY     87   LAYER   1   ROW     6   COL    12   RATE     750.000    
 BOUNDARY     88   LAYER   1   ROW     6   COL    13   RATE     750.000    
 BOUNDARY     89   LAYER   1   ROW     6   COL    14   RATE     750.000    
 BOUNDARY     90   LAYER   1   ROW     6   COL    15   RATE     750.000    
 BOUNDARY     91   LAYER   1   ROW     7   COL     1   RATE     750.000    
 BOUNDARY     92   LAYER   1   ROW     7   COL     2   RATE     750.000    
 BOUNDARY     93   LAYER   1   ROW     7   COL     3   RATE     750.000    
 BOUNDARY     94   LAYER   1   ROW     7   COL     4   RATE     750.000    
 BOUNDARY     95   LAYER   1   ROW     7   COL     5   RATE     750.000    
 BOUNDARY     96   LAYER   1   ROW     7   COL     6   RATE     750.000    
 BOUNDARY     97   LAYER   1   ROW     7   COL     7   RATE     750.000    
 BOUNDARY     98   LAYER   1   ROW     7   COL     8   RATE     750.000    
 BOUNDARY     99   LAYER   1   ROW     7   COL     9   RATE     750.000    
 BOUNDARY    100   LAYER   1   ROW     7   COL    10   RATE     750.000    
 BOUNDARY    101   LAYER   1   ROW     7   COL    11   RATE     750.000    
 BOUNDARY    102   LAYER   1   ROW     7   COL    12   RATE     750.000    
 BOUNDARY    103   LAYER   1   ROW     7   COL    13   RATE     750.000    
 BOUNDARY    104   LAYER   1   ROW     7   COL    14   RATE     750.000    
 BOUNDARY    105   LAYER   1   ROW     7   COL    15   RATE     750.000    
 BOUNDARY    106   LAYER   1   ROW     8   COL     1   RATE     750.000    
 BOUNDARY    107   LAYER   1   ROW     8   COL     2   RATE     750.000    
 BOUNDARY    108   LAYER   1   ROW     8   COL     3   RATE     750.000    
 BOUNDARY    109   LAYER   1   ROW     8   COL     4   RATE     750.000    
 BOUNDARY    110   LAYER   1   ROW     8   COL     5   RATE     750.000    
 BOUNDARY    111   LAYER   1   ROW     8   COL     6   RATE     750.000    
 BOUNDARY    112   LAYER   1   ROW     8   COL     7   RATE     750.000    
 BOUNDARY    113   LAYER   1   ROW     8   COL     8   RATE     750.000    
 BOUNDARY    114   LAYER   1   ROW     8   COL     9   RATE     750.000    
 BOUNDARY    115   LAYER   1   ROW     8   COL    10   RATE     750.000    
 BOUNDARY    116   LAYER   1   ROW     8   COL    11   RATE     750.000    
 BOUNDARY    117   LAYER   1   ROW     8   COL    12   RATE     750.000    
 BOUNDARY    118   LAYER   1   ROW     8   COL    13   RATE     750.000    
 BOUNDARY    119   LAYER   1   ROW     8   COL    14   RATE     750.000    
 BOUNDARY    120   LAYER   1   ROW     8   COL    15   RATE     750.000    
 BOUNDARY    121   LAYER   1   ROW     9   COL     1   RATE     750.000    
 BOUNDARY    122   LAYER   1   ROW     9   COL     2   RATE     750.000    
 BOUNDARY    123   LAYER   1   ROW     9   COL     3   RATE     750.000    
 BOUNDARY    124   LAYER   1   ROW     9   COL     4   RATE     750.000    
 BOUNDARY    125   LAYER   1   ROW     9   COL     5   RATE     750.000    
 BOUNDARY    126   LAYER   1   ROW     9   COL     6   RATE     750.000    
 BOUNDARY    127   LAYER   1   ROW     9   COL     7   RATE     750.000    
 BOUNDARY    128   LAYER   1   ROW     9   COL     8   RATE     750.000    
 BOUNDARY    129   LAYER   1   ROW     9   COL     9   RATE     750.000    
 BOUNDARY    130   LAYER   1   ROW     9   COL    10   RATE     750.000    
 BOUNDARY    131   LAYER   1   ROW     9   COL    11   RATE     750.000    
 BOUNDARY    132   LAYER   1   ROW     9   COL    12   RATE     750.000    
 BOUNDARY    133   LAYER   1   ROW     9   COL    13   RATE     750.000    
 BOUNDARY    134   LAYER   1   ROW     9   COL    14   RATE     750.000    
 BOUNDARY    135   LAYER   1   ROW     9   COL    15   RATE     750.000    
 BOUNDARY    137   LAYER   1   ROW    10   COL     2   RATE     750.000    
 BOUNDARY    138   LAYER   1   ROW    10   COL     3   RATE     750.000    
 BOUNDARY    139   LAYER   1   ROW    10   COL     4   RATE     750.000    
 BOUNDARY    140   LAYER   1   ROW    10   COL     5   RATE     750.000    
 BOUNDARY    141   LAYER   1   ROW    10   COL     6   RATE     750.000    
 BOUNDARY    142   LAYER   1   ROW    10   COL     7   RATE     750.000    
 BOUNDARY    143   LAYER   1   ROW    10   COL     8   RATE     750.000    
 BOUNDARY    144   LAYER   1   ROW    10   COL     9   RATE     750.000    
 BOUNDARY    145   LAYER   1   ROW    10   COL    10   RATE     750.000    
 BOUNDARY    146   LAYER   1   ROW    10   COL    11   RATE     750.000    
 BOUNDARY    147   LAYER   1   ROW    10   COL    12   RATE     750.000    
 BOUNDARY    148   LAYER   1   ROW    10   COL    13   RATE     750.000    
 BOUNDARY    149   LAYER   1   ROW    10   COL    14   RATE     750.000    
 BOUNDARY    150   LAYER   1   ROW    10   COL    15   RATE     750.000    
 UBDSV4 SAVING ET SEGS          ON UNIT   1017 AT TIME STEP      2, STRESS PERIOD      3

 ET SEGS            PERIOD  3   STEP  2
 BOUNDARY      1   LAYER   1   ROW     1   COL    13   RATE    -67.1531      ET-1
 BOUNDARY      2   LAYER   1   ROW     2   COL    13   RATE    -127.020      ET-2
 BOUNDARY      3   LAYER   1   ROW     3   COL    13   RATE    -175.632      ET-3
 BOUNDARY      4   LAYER   1   ROW     4   COL    13   RATE    -213.668      ET-4
 BOUNDARY      5   LAYER   1   ROW     5   COL    13   RATE    -279.291      ET-5
 BOUNDARY      6   LAYER   1   ROW     6   COL    13   RATE    -278.428      ET-6
 BOUNDARY      7   LAYER   1   ROW     7   COL    13   RATE    -212.617      ET-7
 BOUNDARY      8   LAYER   1   ROW     8   COL    13   RATE    -168.347      ET-8
 BOUNDARY      9   LAYER   1   ROW     9   COL    13   RATE    -111.539      ET-9
 BOUNDARY     10   LAYER   1   ROW    10   COL    13   RATE    -34.7671      ET-10
 BOUNDARY     11   LAYER   1   ROW     1   COL    12   RATE    -104.040      ET-1
 BOUNDARY     12   LAYER   1   ROW     2   COL    12   RATE    -181.171      ET-2
 BOUNDARY     13   LAYER   1   ROW     3   COL    12   RATE    -247.171      ET-3
 BOUNDARY     14   LAYER   1   ROW     4   COL    12   RATE    -306.106      ET-4
 BOUNDARY     15   LAYER   1   ROW     5   COL    12   RATE    -407.039      ET-5
 BOUNDARY     16   LAYER   1   ROW     6   COL    12   RATE    -406.143      ET-6
 BOUNDARY     17   LAYER   1   ROW     7   COL    12   RATE    -305.314      ET-7
 BOUNDARY     18   LAYER   1   ROW     8   COL    12   RATE    -237.019      ET-8
 BOUNDARY     19   LAYER   1   ROW     9   COL    12   RATE    -163.593      ET-9
 BOUNDARY     20   LAYER   1   ROW    10   COL    12   RATE    -56.6901      ET-10
 UBDSV4 SAVING CONSTANT HEADS   ON UNIT   1017 AT TIME STEP      2, STRESS PERIOD      3

 CONSTANT HEADS     PERIOD  3   STEP  2
 BOUNDARY      1   LAYER   1   ROW     1   COL     1   RATE     2628.75      CHD-1
 BOUNDARY      2   LAYER   1   ROW     4   COL     1   RATE     4703.79    
 BOUNDARY      3   LAYER   1   ROW     5   COL     1   RATE     827.212      CHD_GP
 BOUNDARY      4   LAYER   1   ROW     6   COL     1   RATE     4313.34      CHD_GP
 BOUNDARY      5   LAYER   1   ROW    10   COL     1   RATE     1775.36      CHD-10

 HEAD WILL BE SAVED ON UNIT 1018 AT END OF TIME STEP    2, STRESS PERIOD    3
WEL   no.    2 value from time series:  -30000.     for time:  3.400     to  3.600    
WEL   no.    3 value from time series:  -7000.0     for time:  3.400     to  3.600    
RIV   no.    1 value from time series:   104.50     for time:  3.400     to  3.600    
RIV   no.    2 value from time series:   104.50     for time:  3.400     to  3.600    
RIV   no.    3 value from time series:   104.50     for time:  3.400     to  3.600    
RIV   no.    4 value from time series:   104.50     for time:  3.400     to  3.600    
RIV   no.    5 value from time series:   104.50     for time:  3.400     to  3.600    
RIV   no.    6 value from time series:   104.50     for time:  3.400     to  3.600    
RIV   no.    7 value from time series:   104.50     for time:  3.400     to  3.600    
RIV   no.    8 value from time series:   104.50     for time:  3.400     to  3.600    
RIV   no.    9 value from time series:   104.50     for time:  3.400     to  3.600    
RIV   no.   10 value from time series:   104.50     for time:  3.400     to  3.600    
RIV   no.   11 value from time series:   104.50     for time:  3.400     to  3.600    
RIV   no.   12 value from time series:   104.50     for time:  3.400     to  3.600    
RIV   no.   13 value from time series:   104.50     for time:  3.400     to  3.600    
RIV   no.   14 value from time series:   104.50     for time:  3.400     to  3.600    
RIV   no.   15 value from time series:   104.50     for time:  3.400     to  3.600    
RIV   no.   16 value from time series:   104.50     for time:  3.400     to  3.600    
RIV   no.   17 value from time series:   104.50     for time:  3.400     to  3.600    
RIV   no.   18 value from time series:   104.50     for time:  3.400     to  3.600    
RIV   no.   19 value from time series:   104.50     for time:  3.400     to  3.600    
RIV   no.   20 value from time series:   104.50     for time:  3.400     to  3.600    
EVT   no.    1 value from time series:   885.94     for time:  3.400     to  3.600    
EVT   no.    2 value from time series:   1771.9     for time:  3.400     to  3.600    
EVT   no.    3 value from time series:   2657.8     for time:  3.400     to  3.600    
EVT   no.    4 value from time series:   3543.8     for time:  3.400     to  3.600    
EVT   no.   10 value from time series:   442.97     for time:  3.400     to  3.600    
EVT   no.   11 value from time series:   885.94     for time:  3.400     to  3.600    
EVT   no.   12 value from time series:   1771.9     for time:  3.400     to  3.600    
EVT   no.   13 value from time series:   2657.8     for time:  3.400     to  3.600    
EVT   no.   14 value from time series:   3543.8     for time:  3.400     to  3.600    
EVT   no.   20 value from time series:   442.97     for time:  3.400     to  3.600    
WEL   no.    2 value from time series:  -30000.     for time:  3.400     to  3.600    
WEL   no.    3 value from time series:  -7000.0     for time:  3.400     to  3.600    
RIV   no.    1 value from time series:   104.50     for time:  3.400     to  3.600    
RIV   no.    2 value from time series:   104.50     for time:  3.400     to  3.600    
RIV   no.    3 value from time series:   104.50     for time:  3.400     to  3.600    
RIV   no.    4 value from time series:   104.50     for time:  3.400     to  3.600    
RIV   no.    5 value from time series:   104.50     for time:  3.400     to  3.600    
RIV   no.    6 value from time series:   104.50     for time:  3.400     to  3.600    
RIV   no.    7 value from time series:   104.50     for time:  3.400     to  3.600    
RIV   no.    8 value from time series:   104.50     for time:  3.400     to  3.600    
RIV   no.    9 value from time series:   104.50     for time:  3.400     to  3.600    
RIV   no.   10 value from time series:   104.50     for time:  3.400     to  3.600    
RIV   no.   11 value from time series:   104.50     for time:  3.400     to  3.600    
RIV   no.   12 value from time series:   104.50     for time:  3.400     to  3.600    
RIV   no.   13 value from time series:   104.50     for time:  3.400     to  3.600    
RIV   no.   14 value from time series:   104.50     for time:  3.400     to  3.600    
RIV   no.   15 value from time series:   104.50     for time:  3.400     to  3.600    
RIV   no.   16 value from time series:   104.50     for time:  3.400     to  3.600    
RIV   no.   17 value from time series:   104.50     for time:  3.400     to  3.600    
RIV   no.   18 value from time series:   104.50     for time:  3.400     to  3.600    
RIV   no.   19 value from time series:   104.50     for time:  3.400     to  3.600    
RIV   no.   20 value from time series:   104.50     for time:  3.400     to  3.600    
EVT   no.    1 value from time series:   885.94     for time:  3.400     to  3.600    
EVT   no.    2 value from time series:   1771.9     for time:  3.400     to  3.600    
EVT   no.    3 value from time series:   2657.8     for time:  3.400     to  3.600    
EVT   no.    4 value from time series:   3543.8     for time:  3.400     to  3.600    
EVT   no.   10 value from time series:   442.97     for time:  3.400     to  3.600    
EVT   no.   11 value from time series:   885.94     for time:  3.400     to  3.600    
EVT   no.   12 value from time series:   1771.9     for time:  3.400     to  3.600    
EVT   no.   13 value from time series:   2657.8     for time:  3.400     to  3.600    
EVT   no.   14 value from time series:   3543.8     for time:  3.400     to  3.600    
EVT   no.   20 value from time series:   442.97     for time:  3.400     to  3.600    

 OUTPUT CONTROL FOR STRESS PERIOD    3   TIME STEP    3
    SAVE BUDGET
    SAVE HEAD
    SAVE HEAD FOR ALL LAYERS
 UBDSV1 SAVING      STORAGE(SS) ON UNIT   1017 AT TIME STEP      3, STRESS PERIOD      3
 UBDSV1 SAVING      STORAGE(SY) ON UNIT   1017 AT TIME STEP      3, STRESS PERIOD      3
 UBDSV1 SAVING FLOW RIGHT FACE  ON UNIT   1017 AT TIME STEP      3, STRESS PERIOD      3
 UBDSV1 SAVING FLOW FRONT FACE  ON UNIT   1017 AT TIME STEP      3, STRESS PERIOD      3
 UBDSV1 SAVING FLOW LOWER FACE  ON UNIT   1017 AT TIME STEP      3, STRESS PERIOD      3
 UBDSV4 SAVING WELLS NEAR RIVER ON UNIT   1017 AT TIME STEP      3, STRESS PERIOD      3

 WELLS NEAR RIVER   PERIOD  3   STEP  3
 BOUNDARY      1   LAYER   1   ROW     2   COL     3   RATE    -50.0000    
 BOUNDARY      2   LAYER   2   ROW     3   COL     4   RATE    -30000.0      WELL_1
 BOUNDARY      3   LAYER   2   ROW     8   COL     4   RATE    -7000.00      WELL_2
 UBDSV4 SAVING RIVER            ON UNIT   1017 AT TIME STEP      3, STRESS PERIOD      3

 RIVER              PERIOD  3   STEP  3
 BOUNDARY      1   LAYER   1   ROW     1   COL    15   RATE     16842.8    
 BOUNDARY      2   LAYER   1   ROW     2   COL    15   RATE     16860.5      RIV2
 BOUNDARY      3   LAYER   1   ROW     3   COL    15   RATE     16887.1      RIV3
 BOUNDARY      4   LAYER   1   ROW     4   COL    15   RATE     16914.9    
 BOUNDARY      5   LAYER   1   ROW     5   COL    15   RATE     16936.4    
 BOUNDARY      6   LAYER   1   ROW     6   COL    15   RATE     16937.0    
 BOUNDARY      7   LAYER   1   ROW     7   COL    15   RATE     16916.3      RIVX
 BOUNDARY      8   LAYER   1   ROW     8   COL    15   RATE     16885.6      RIVX
 BOUNDARY      9   LAYER   1   ROW     9   COL    15   RATE     16853.5      RIVX
 BOUNDARY     10   LAYER   1   ROW    10   COL    15   RATE     16830.6    
 BOUNDARY     11   LAYER   2   ROW     1   COL    15   RATE     66.3495    
 BOUNDARY     12   LAYER   2   ROW     2   COL    15   RATE     68.8005      RIV2
 BOUNDARY     13   LAYER   2   ROW     3   COL    15   RATE     72.6801      RIV3
 BOUNDARY     14   LAYER   2   ROW     4   COL    15   RATE     76.6896    
 BOUNDARY     15   LAYER   2   ROW     5   COL    15   RATE     79.4410    
 BOUNDARY     16   LAYER   2   ROW     6   COL    15   RATE     79.4221    
 BOUNDARY     17   LAYER   2   ROW     7   COL    15   RATE     76.5305      RIVX
 BOUNDARY     18   LAYER   2   ROW     8   COL    15   RATE     72.0199      RIVX
 BOUNDARY     19   LAYER   2   ROW     9   COL    15   RATE     67.4140      RIVX
 BOUNDARY     20   LAYER   2   ROW    10   COL    15   RATE     64.3787    

 GHB LAKES          PERIOD  3   STEP  3
 BOUNDARY      1   LAYER   1   ROW     3   COL     1   RATE    -7877.14    
 BOUNDARY      2   LAYER   1   ROW     7   COL     1   RATE     4363.30      GHB2_UPPER
 BOUNDARY      3   LAYER   1   ROW     7   COL     1   RATE    -11010.7      GHB2_LOWER
 UBDSV4 SAVING RECHARGE         ON UNIT   1017 AT TIME STEP      3, STRESS PERIOD      3

 RECHARGE           PERIOD  3   STEP  3
 BOUNDARY      2   LAYER   1   ROW     1   COL     2   RATE     750.000    
 BOUNDARY      3   LAYER   1   ROW     1   COL     3   RATE     750.000    
 BOUNDARY      4   LAYER   1   ROW     1   COL     4   RATE     750.000    
 BOUNDARY      5   LAYER   1   ROW     1   COL     5   RATE     750.000    
 BOUNDARY      6   LAYER   1   ROW     1   COL     6   RATE     750.000    
 BOUNDARY      7   LAYER   1   ROW     1   COL     7   RATE     750.000    
 BOUNDARY      8   LAYER   1   ROW     1   COL     8   RATE     750.000    
 BOUNDARY      9   LAYER   1   ROW     1   COL     9   RATE     750.000    
 BOUNDARY     10   LAYER   1   ROW     1   COL    10   RATE     750.000    
 BOUNDARY     11   LAYER   1   ROW     1   COL    11   RATE     750.000    
 BOUNDARY     12   LAYER   1   ROW     1   COL    12   RATE     750.000    
 BOUNDARY     13   LAYER   1   ROW     1   COL    13   RATE     750.000    
 BOUNDARY     14   LAYER   1   ROW     1   COL    14   RATE     750.000    
 BOUNDARY     15   LAYER   1   ROW     1   COL    15   RATE     750.000    
 BOUNDARY     16   LAYER   1   ROW     2   COL     1   RATE     750.000    
 BOUNDARY     17   LAYER   1   ROW     2   COL     2   RATE     750.000    
 BOUNDARY     18   LAYER   1   ROW     2   COL     3   RATE     750.000    
 BOUNDARY     19   LAYER   1   ROW     2   COL     4   RATE     750.000    
 BOUNDARY     20   LAYER   1   ROW     2   COL     5   RATE     750.000    
 BOUNDARY     21   LAYER   1   ROW     2   COL     6   RATE     750.000    
 BOUNDARY     22   LAYER   1   ROW     2   COL     7   RATE     750.000    
 BOUNDARY     23   LAYER   1   ROW     2   COL     8   RATE     750.000    
 BOUNDARY     24   LAYER   1   ROW     2   COL     9   RATE     750.000    
 BOUNDARY     25   LAYER   1   ROW     2   COL    10   RATE     750.000    
 BOUNDARY     26   LAYER   1   ROW     2   COL    11   RATE     750.000    
 BOUNDARY     27   LAYER   1   ROW     2   COL    12   RATE     750.000    
 BOUNDARY     28   LAYER   1   ROW     2   COL    13   RATE     750.000    
 BOUNDARY     29   LAYER   1   ROW     2   COL    14   RATE     750.000    
 BOUNDARY     30   LAYER   1   ROW     2   COL    15   RATE     750.000    
 BOUNDARY     31   LAYER   1   ROW     3   COL     1   RATE     750.000    
 BOUNDARY     32   LAYER   1   ROW     3   COL     2   RATE     750.000    
 BOUNDARY     33   LAYER   1   ROW     3   COL     3   RATE     750.000    
 BOUNDARY     34   LAYER   1   ROW     3   COL     4   RATE     750.000    
 BOUNDARY     35   LAYER   1   ROW     3   COL     5   RATE     750.000    
 BOUNDARY     36   LAYER   1   ROW     3   COL     6   RATE     750.000    
 BOUNDARY     37   LAYER   1   ROW     3   COL     7   RATE     750.000    
 BOUNDARY     38   LAYER   1   ROW     3   COL     8   RATE     750.000    
 BOUNDARY     39   LAYER   1   ROW     3   COL     9   RATE     750.000    
 BOUNDARY     40   LAYER   1   ROW     3   COL    10   RATE     750.000    
 BOUNDARY     41   LAYER   1   ROW     3   COL    11   RATE     750.000    
 BOUNDARY     42   LAYER   1   ROW     3   COL    12   RATE     750.000    
 BOUNDARY     43   LAYER   1   ROW     3   COL    13   RATE     750.000    
 BOUNDARY     44   LAYER   1   ROW     3   COL    14   RATE     750.000    
 BOUNDARY     45   LAYER   1   ROW     3   COL    15   RATE     750.000    
 BOUNDARY     47   LAYER   1   ROW     4   COL     2   RATE     750.000    
 BOUNDARY     48   LAYER   1   ROW     4   COL     3   RATE     750.000    
 BOUNDARY     49   LAYER   1   ROW     4   COL     4   RATE     750.000    
 BOUNDARY     50   LAYER   1   ROW     4   COL     5   RATE     750.000    
 BOUNDARY     51   LAYER   1   ROW     4   COL     6   RATE     750.000    
 BOUNDARY     52   LAYER   1   ROW     4   COL     7   RATE     750.000    
 BOUNDARY     53   LAYER   1   ROW     4   COL     8   RATE     750.000    
 BOUNDARY     54   LAYER   1   ROW     4   COL     9   RATE     750.000    
 BOUNDARY     55   LAYER   1   ROW     4   COL    10   RATE     750.000    
 BOUNDARY     56   LAYER   1   ROW     4   COL    11   RATE     750.000    
 BOUNDARY     57   LAYER   1   ROW     4   COL    12   RATE     750.000    
 BOUNDARY     58   LAYER   1   ROW     4   COL    13   RATE     750.000    
 BOUNDARY     59   LAYER   1   ROW     4   COL    14   RATE     750.000    
 BOUNDARY     60   LAYER   1   ROW     4   COL    15   RATE     750.000    
 BOUNDARY     62   LAYER   1   ROW     5   COL     2   RATE     750.000    
 BOUNDARY     63   LAYER   1   ROW     5   COL     3   RATE     750.000    
 BOUNDARY     64   LAYER   1   ROW     5   COL     4   RATE     750.000    
 BOUNDARY     65   LAYER   1   ROW     5   COL     5   RATE     750.000    
 BOUNDARY     66   LAYER   1   ROW     5   COL     6   RATE     750.000    
 BOUNDARY     67   LAYER   1   ROW     5   COL     7   RATE     750.000    
 BOUNDARY     68   LAYER   1   ROW     5   COL     8   RATE     750.000    
 BOUNDARY     69   LAYER   1   ROW     5   COL     9   RATE     750.000    
 BOUNDARY     70   LAYER   1   ROW     5   COL    10   RATE     750.000    
 BOUNDARY     71   LAYER   1   ROW     5   COL    11   RATE     750.000    
 BOUNDARY     72   LAYER   1   ROW     5   COL    12   RATE     750.000    
 BOUNDARY     73   LAYER   1   ROW     5   COL    13   RATE     750.000    
 BOUNDARY     74   LAYER   1   ROW     5   COL    14   RATE     750.000    
 BOUNDARY     75   LAYER   1   ROW     5   COL    15   RATE     750.000    
 BOUNDARY     77   LAYER   1   ROW     6   COL     2   RATE     750.000    
 BOUNDARY     78   LAYER   1   ROW     6   COL     3   RATE     750.000    
 BOUNDARY     79   LAYER   1   ROW     6   COL     4   RATE     750.000    
 BOUNDARY     80   LAYER   1   ROW     6   COL     5   RATE     750.000    
 BOUNDARY     81   LAYER   1   ROW     6   COL     6   RATE     750.000    
 BOUNDARY     82   LAYER   1   ROW     6   COL     7   RATE     750.000    
 BOUNDARY     83   LAYER   1   ROW     6   COL     8   RATE     750.000    
 BOUNDARY     84   LAYER   1   ROW     6   COL     9   RATE     750.000    
 BOUNDARY     85   LAYER   1   ROW     6   COL    10   RATE     750.000    
 BOUNDARY     86   LAYER   1   ROW     6   COL    11   RATE     750.000    
 BOUNDARY     87   LAYER   1   ROW     6   COL    12   RATE     750.000    
 BOUNDARY     88   LAYER   1   ROW     6   COL    13   RATE     750.000    
 BOUNDARY     89   LAYER   1   ROW     6   COL    14   RATE     750.000    
 BOUNDARY     90   LAYER   1   ROW     6   COL    15   RATE     750.000    
 BOUNDARY     91   LAYER   1   ROW     7   COL     1   RATE     750.000    
 BOUNDARY     92   LAYER   1   ROW     7   COL     2   RATE     750.000    
 BOUNDARY     93   LAYER   1   ROW     7   COL     3   RATE     750.000    
 BOUNDARY     94   LAYER   1   ROW     7   COL     4   RATE     750.000    
 BOUNDARY     95   LAYER   1   ROW     7   COL     5   RATE     750.000    
 BOUNDARY     96   LAYER   1   ROW     7   COL     6   RATE     750.000    
 BOUNDARY     97   LAYER   1   ROW     7   COL     7   RATE     750.000    
 BOUNDARY     98   LAYER   1   ROW     7   COL     8   RATE     750.000    
 BOUNDARY     99   LAYER   1   ROW     7   COL     9   RATE     750.000    
 BOUNDARY    100   LAYER   1   ROW     7   COL    10   RATE     750.000    
 BOUNDARY    101   LAYER   1   ROW     7   COL    11   RATE     750.000    
 BOUNDARY    102   LAYER   1   ROW     7   COL    12   RATE     750.000    
 BOUNDARY    103   LAYER   1   ROW     7   COL    13   RATE     750.000    
 BOUNDARY    104   LAYER   1   ROW     7   COL    14   RATE     750.000    
 BOUNDARY    105   LAYER   1   ROW     7   COL    15   RATE     750.000    
 BOUNDARY    106   LAYER   1   ROW     8   COL     1   RATE     750.000    
 BOUNDARY    107   LAYER   1   ROW     8   COL     2   RATE     750.000    
 BOUNDARY    108   LAYER   1   ROW     8   COL     3   RATE     750.000    
 BOUNDARY    109   LAYER   1   ROW     8   COL     4   RATE     750.000    
 BOUNDARY    110   LAYER   1   ROW     8   COL     5   RATE     750.000    
 BOUNDARY    111   LAYER   1   ROW     8   COL     6   RATE     750.000    
 BOUNDARY    112   LAYER   1   ROW     8   COL     7   RATE     750.000    
 BOUNDARY    113   LAYER   1   ROW     8   COL     8   RATE     750.000    
 BOUNDARY    114   LAYER   1   ROW     8   COL     9   RATE     750.000    
 BOUNDARY    115   LAYER   1   ROW     8   COL    10   RATE     750.000    
 BOUNDARY    116   LAYER   1   ROW     8   COL    11   RATE     750.000    
 BOUNDARY    117   LAYER   1   ROW     8   COL    12   RATE     750.000    
 BOUNDARY    118   LAYER   1   ROW     8   COL    13   RATE     750.000    
 BOUNDARY    119   LAYER   1   ROW     8   COL    14   RATE     750.000    
 BOUNDARY    120   LAYER   1   ROW     8   COL    15   RATE     750.000    
 BOUNDARY    121   LAYER   1   ROW     9   COL     1   RATE     750.000    
 BOUNDARY    122   LAYER   1   ROW     9   COL     2   RATE     750.000    
 BOUNDARY    123   LAYER   1   ROW     9   COL     3   RATE     750.000    
 BOUNDARY    124   LAYER   1   ROW     9   COL     4   RATE     750.000    
 BOUNDARY    125   LAYER   1   ROW     9   COL     5   RATE     750.000    
 BOUNDARY    126   LAYER   1   ROW     9   COL     6   RATE     750.000    
 BOUNDARY    127   LAYER   1   ROW     9   COL     7   RATE     750.000    
 BOUNDARY    128   LAYER   1   ROW     9   COL     8   RATE     750.000    
 BOUNDARY    129   LAYER   1   ROW     9   COL     9   RATE     750.000    
 BOUNDARY    130   LAYER   1   ROW     9   COL    10   RATE     750.000    
 BOUNDARY    131   LAYER   1   ROW     9   COL    11   RATE     750.000    
 BOUNDARY    132   LAYER   1   ROW     9   COL    12   RATE     750.000    
 BOUNDARY    133   LAYER   1   ROW     9   COL    13   RATE     750.000    
 BOUNDARY    134   LAYER   1   ROW     9   COL    14   RATE     750.000    
 BOUNDARY    135   LAYER   1   ROW     9   COL    15   RATE     750.000    
 BOUNDARY    137   LAYER   1   ROW    10   COL     2   RATE     750.000    
 BOUNDARY    138   LAYER   1   ROW    10   COL     3   RATE     750.000    
 BOUNDARY    139   LAYER   1   ROW    10   COL     4   RATE     750.000    
 BOUNDARY    140   LAYER   1   ROW    10   COL     5   RATE     750.000    
 BOUNDARY    141   LAYER   1   ROW    10   COL     6   RATE     750.000    
 BOUNDARY    142   LAYER   1   ROW    10   COL     7   RATE     750.000    
 BOUNDARY    143   LAYER   1   ROW    10   COL     8   RATE     750.000    
 BOUNDARY    144   LAYER   1   ROW    10   COL     9   RATE     750.000    
 BOUNDARY    145   LAYER   1   ROW    10   COL    10   RATE     750.000    
 BOUNDARY    146   LAYER   1   ROW    10   COL    11   RATE     750.000    
 BOUNDARY    147   LAYER   1   ROW    10   COL    12   RATE     750.000    
 BOUNDARY    148   LAYER   1   ROW    10   COL    13   RATE     750.000    
 BOUNDARY    149   LAYER   1   ROW    10   COL    14   RATE     750.000    
 BOUNDARY    150   LAYER   1   ROW    10   COL    15   RATE     750.000    
 UBDSV4 SAVING ET SEGS          ON UNIT   1017 AT TIME STEP      3, STRESS PERIOD      3

 ET SEGS            PERIOD  3   STEP  3
 BOUNDARY      1   LAYER   1   ROW     1   COL    13   RATE    -68.5554      ET-1
 BOUNDARY      2   LAYER   1   ROW     2   COL    13   RATE    -129.680      ET-2
 BOUNDARY      3   LAYER   1   ROW     3   COL    13   RATE    -179.332      ET-3
 BOUNDARY      4   LAYER   1   ROW     4   COL    13   RATE    -218.199      ET-4
 BOUNDARY      5   LAYER   1   ROW     5   COL    13   RATE    -279.848      ET-5
 BOUNDARY      6   LAYER   1   ROW     6   COL    13   RATE    -278.985      ET-6
 BOUNDARY      7   LAYER   1   ROW     7   COL    13   RATE    -213.008      ET-7
 BOUNDARY      8   LAYER   1   ROW     8   COL    13   RATE    -168.627      ET-8
 BOUNDARY      9   LAYER   1   ROW     9   COL    13   RATE    -111.707      ET-9
 BOUNDARY     10   LAYER   1   ROW    10   COL    13   RATE    -35.4917      ET-10
 BOUNDARY     11   LAYER   1   ROW     1   COL    12   RATE    -106.383      ET-1
 BOUNDARY     12   LAYER   1   ROW     2   COL    12   RATE    -185.323      ET-2
 BOUNDARY     13   LAYER   1   ROW     3   COL    12   RATE    -252.254      ET-3
 BOUNDARY     14   LAYER   1   ROW     4   COL    12   RATE    -312.424      ET-4
 BOUNDARY     15   LAYER   1   ROW     5   COL    12   RATE    -407.593      ET-5
 BOUNDARY     16   LAYER   1   ROW     6   COL    12   RATE    -406.696      ET-6
 BOUNDARY     17   LAYER   1   ROW     7   COL    12   RATE    -305.702      ET-7
 BOUNDARY     18   LAYER   1   ROW     8   COL    12   RATE    -237.297      ET-8
 BOUNDARY     19   LAYER   1   ROW     9   COL    12   RATE    -164.147      ET-9
 BOUNDARY     20   LAYER   1   ROW    10   COL    12   RATE    -57.9540      ET-10
 UBDSV4 SAVING CONSTANT HEADS   ON UNIT   1017 AT TIME STEP      3, STRESS PERIOD      3

 CONSTANT HEADS     PERIOD  3   STEP  3
 BOUNDARY      1   LAYER   1   ROW     1   COL     1   RATE     2627.87      CHD-1
 BOUNDARY      2   LAYER   1   ROW     4   COL     1   RATE     4704.34    
 BOUNDARY      3   LAYER   1   ROW     5   COL     1   RATE     827.248      CHD_GP
 BOUNDARY      4   LAYER   1   ROW     6   COL     1   RATE     4311.78      CHD_GP
 BOUNDARY      5   LAYER   1   ROW    10   COL     1   RATE     1772.84      CHD-10

 HEAD WILL BE SAVED ON UNIT 1018 AT END OF TIME STEP    3, STRESS PERIOD    3
WEL   no.    2 value from time series:  -30000.     for time:  3.600     to  3.800    
WEL   no.    3 value from time series:  -7400.0     for time:  3.600     to  3.800    
RIV   no.    1 value from time series:   104.30     for time:  3.600     to  3.800    
RIV   no.    2 value from time series:   104.30     for time:  3.600     to  3.800    
RIV   no.    3 value from time series:   104.30     for time:  3.600     to  3.800    
RIV   no.    4 value from time series:   104.30     for time:  3.600     to  3.800    
RIV   no.    5 value from time series:   104.30     for time:  3.600     to  3.800    
RIV   no.    6 value from time series:   104.30     for time:  3.600     to  3.800    
RIV   no.    7 value from time series:   104.30     for time:  3.600     to  3.800    
RIV   no.    8 value from time series:   104.30     for time:  3.600     to  3.800    
RIV   no.    9 value from time series:   104.30     for time:  3.600     to  3.800    
RIV   no.   10 value from time series:   104.30     for time:  3.600     to  3.800    
RIV   no.   11 value from time series:   104.30     for time:  3.600     to  3.800    
RIV   no.   12 value from time series:   104.30     for time:  3.600     to  3.800    
RIV   no.   13 value from time series:   104.30     for time:  3.600     to  3.800    
RIV   no.   14 value from time series:   104.30     for time:  3.600     to  3.800    
RIV   no.   15 value from time series:   104.30     for time:  3.600     to  3.800    
RIV   no.   16 value from time series:   104.30     for time:  3.600     to  3.800    
RIV   no.   17 value from time series:   104.30     for time:  3.600     to  3.800    
RIV   no.   18 value from time series:   104.30     for time:  3.600     to  3.800    
RIV   no.   19 value from time series:   104.30     for time:  3.600     to  3.800    
RIV   no.   20 value from time series:   104.30     for time:  3.600     to  3.800    
EVT   no.    1 value from time series:   902.81     for time:  3.600     to  3.800    
EVT   no.    2 value from time series:   1805.6     for time:  3.600     to  3.800    
EVT   no.    3 value from time series:   2708.4     for time:  3.600     to  3.800    
EVT   no.    4 value from time series:   3611.2     for time:  3.600     to  3.800    
EVT   no.   10 value from time series:   451.41     for time:  3.600     to  3.800    
EVT   no.   11 value from time series:   902.81     for time:  3.600     to  3.800    
EVT   no.   12 value from time series:   1805.6     for time:  3.600     to  3.800    
EVT   no.   13 value from time series:   2708.4     for time:  3.600     to  3.800    
EVT   no.   14 value from time series:   3611.2     for time:  3.600     to  3.800    
EVT   no.   20 value from time series:   451.41     for time:  3.600     to  3.800    
WEL   no.    2 value from time series:  -30000.     for time:  3.600     to  3.800    
WEL   no.    3 value from time series:  -7400.0     for time:  3.600     to  3.800    
RIV   no.    1 value from time series:   104.30     for time:  3.600     to  3.800    
RIV   no.    2 value from time series:   104.30     for time:  3.600     to  3.800    
RIV   no.    3 value from time series:   104.30     for time:  3.600     to  3.800    
RIV   no.    4 value from time series:   104.30     for time:  3.600     to  3.800    
RIV   no.    5 value from time series:   104.30     for time:  3.600     to  3.800    
RIV   no.    6 value from time series:   104.30     for time:  3.600     to  3.800    
RIV   no.    7 value from time series:   104.30     for time:  3.600     to  3.800    
RIV   no.    8 value from time series:   104.30     for time:  3.600     to  3.800    
RIV   no.    9 value from time series:   104.30     for time:  3.600     to  3.800    
RIV   no.   10 value from time series:   104.30     for time:  3.600     to  3.800    
RIV   no.   11 value from time series:   104.30     for time:  3.600     to  3.800    
RIV   no.   12 value from time series:   104.30     for time:  3.600     to  3.800    
RIV   no.   13 value from time series:   104.30     for time:  3.600     to  3.800    
RIV   no.   14 value from time series:   104.30     for time:  3.600     to  3.800    
RIV   no.   15 value from time series:   104.30     for time:  3.600     to  3.800    
RIV   no.   16 value from time series:   104.30     for time:  3.600     to  3.800    
RIV   no.   17 value from time series:   104.30     for time:  3.600     to  3.800    
RIV   no.   18 value from time series:   104.30     for time:  3.600     to  3.800    
RIV   no.   19 value from time series:   104.30     for time:  3.600     to  3.800    
RIV   no.   20 value from time series:   104.30     for time:  3.600     to  3.800    
EVT   no.    1 value from time series:   902.81     for time:  3.600     to  3.800    
EVT   no.    2 value from time series:   1805.6     for time:  3.600     to  3.800    
EVT   no.    3 value from time series:   2708.4     for time:  3.600     to  3.800    
EVT   no.    4 value from time series:   3611.2     for time:  3.600     to  3.800    
EVT   no.   10 value from time series:   451.41     for time:  3.600     to  3.800    
EVT   no.   11 value from time series:   902.81     for time:  3.600     to  3.800    
EVT   no.   12 value from time series:   1805.6     for time:  3.600     to  3.800    
EVT   no.   13 value from time series:   2708.4     for time:  3.600     to  3.800    
EVT   no.   14 value from time series:   3611.2     for time:  3.600     to  3.800    
EVT   no.   20 value from time series:   451.41     for time:  3.600     to  3.800    

 OUTPUT CONTROL FOR STRESS PERIOD    3   TIME STEP    4
    SAVE BUDGET
    SAVE HEAD
    SAVE HEAD FOR ALL LAYERS
 UBDSV1 SAVING      STORAGE(SS) ON UNIT   1017 AT TIME STEP      4, STRESS PERIOD      3
 UBDSV1 SAVING      STORAGE(SY) ON UNIT   1017 AT TIME STEP      4, STRESS PERIOD      3
 UBDSV1 SAVING FLOW RIGHT FACE  ON UNIT   1017 AT TIME STEP      4, STRESS PERIOD      3
 UBDSV1 SAVING FLOW FRONT FACE  ON UNIT   1017 AT TIME STEP      4, STRESS PERIOD      3
 UBDSV1 SAVING FLOW LOWER FACE  ON UNIT   1017 AT TIME STEP      4, STRESS PERIOD      3
 UBDSV4 SAVING WELLS NEAR RIVER ON UNIT   1017 AT TIME STEP      4, STRESS PERIOD      3

 WELLS NEAR RIVER   PERIOD  3   STEP  4
 BOUNDARY      1   LAYER   1   ROW     2   COL     3   RATE    -50.0000    
 BOUNDARY      2   LAYER   2   ROW     3   COL     4   RATE    -30000.0      WELL_1
 BOUNDARY      3   LAYER   2   ROW     8   COL     4   RATE    -7400.00      WELL_2
 UBDSV4 SAVING RIVER            ON UNIT   1017 AT TIME STEP      4, STRESS PERIOD      3

 RIVER              PERIOD  3   STEP  4
 BOUNDARY      1   LAYER   1   ROW     1   COL    15   RATE     13668.0    
 BOUNDARY      2   LAYER   1   ROW     2   COL    15   RATE     13685.7      RIV2
 BOUNDARY      3   LAYER   1   ROW     3   COL    15   RATE     13712.3      RIV3
 BOUNDARY      4   LAYER   1   ROW     4   COL    15   RATE     13739.9    
 BOUNDARY      5   LAYER   1   ROW     5   COL    15   RATE     13761.4    
 BOUNDARY      6   LAYER   1   ROW     6   COL    15   RATE     13762.0    
 BOUNDARY      7   LAYER   1   ROW     7   COL    15   RATE     13741.4      RIVX
 BOUNDARY      8   LAYER   1   ROW     8   COL    15   RATE     13710.8      RIVX
 BOUNDARY      9   LAYER   1   ROW     9   COL    15   RATE     13678.7      RIVX
 BOUNDARY     10   LAYER   1   ROW    10   COL    15   RATE     13655.8    
 BOUNDARY     11   LAYER   2   ROW     1   COL    15   RATE     44.9593    
 BOUNDARY     12   LAYER   2   ROW     2   COL    15   RATE     47.3566      RIV2
 BOUNDARY     13   LAYER   2   ROW     3   COL    15   RATE     51.1487      RIV3
 BOUNDARY     14   LAYER   2   ROW     4   COL    15   RATE     55.0693    
 BOUNDARY     15   LAYER   2   ROW     5   COL    15   RATE     57.7646    
 BOUNDARY     16   LAYER   2   ROW     6   COL    15   RATE     57.7487    
 BOUNDARY     17   LAYER   2   ROW     7   COL    15   RATE     54.9210      RIVX
 BOUNDARY     18   LAYER   2   ROW     8   COL    15   RATE     50.5118      RIVX
 BOUNDARY     19   LAYER   2   ROW     9   COL    15   RATE     46.0080      RIVX
 BOUNDARY     20   LAYER   2   ROW    10   COL    15   RATE     43.0372    

 GHB LAKES          PERIOD  3   STEP  4
 BOUNDARY      1   LAYER   1   ROW     3   COL     1   RATE    -7883.64    
 BOUNDARY      2   LAYER   1   ROW     7   COL     1   RATE     4357.58      GHB2_UPPER
 BOUNDARY      3   LAYER   1   ROW     7   COL     1   RATE    -11012.7      GHB2_LOWER
 UBDSV4 SAVING RECHARGE         ON UNIT   1017 AT TIME STEP      4, STRESS PERIOD      3

 RECHARGE           PERIOD  3   STEP  4
 BOUNDARY      2   LAYER   1   ROW     1   COL     2   RATE     750.000    
 BOUNDARY      3   LAYER   1   ROW     1   COL     3   RATE     750.000    
 BOUNDARY      4   LAYER   1   ROW     1   COL     4   RATE     750.000    
 BOUNDARY      5   LAYER   1   ROW     1   COL     5   RATE     750.000    
 BOUNDARY      6   LAYER   1   ROW     1   COL     6   RATE     750.000    
 BOUNDARY      7   LAYER   1   ROW     1   COL     7   RATE     750.000    
 BOUNDARY      8   LAYER   1   ROW     1   COL     8   RATE     750.000    
 BOUNDARY      9   LAYER   1   ROW     1   COL     9   RATE     750.000    
 BOUNDARY     10   LAYER   1   ROW     1   COL    10   RATE     750.000    
 BOUNDARY     11   LAYER   1   ROW     1   COL    11   RATE     750.000    
 BOUNDARY     12   LAYER   1   ROW     1   COL    12   RATE     750.000    
 BOUNDARY     13   LAYER   1   ROW     1   COL    13   RATE     750.000    
 BOUNDARY     14   LAYER   1   ROW     1   COL    14   RATE     750.000    
 BOUNDARY     15   LAYER   1   ROW     1   COL    15   RATE     750.000    
 BOUNDARY     16   LAYER   1   ROW     2   COL     1   RATE     750.000    
 BOUNDARY     17   LAYER   1   ROW     2   COL     2   RATE     750.000    
 BOUNDARY     18   LAYER   1   ROW     2   COL     3   RATE     750.000    
 BOUNDARY     19   LAYER   1   ROW     2   COL     4   RATE     750.000    
 BOUNDARY     20   LAYER   1   ROW     2   COL     5   RATE     750.000    
 BOUNDARY     21   LAYER   1   ROW     2   COL     6   RATE     750.000    
 BOUNDARY     22   LAYER   1   ROW     2   COL     7   RATE     750.000    
 BOUNDARY     23   LAYER   1   ROW     2   COL     8   RATE     750.000    
 BOUNDARY     24   LAYER   1   ROW     2   COL     9   RATE     750.000    
 BOUNDARY     25   LAYER   1   ROW     2   COL    10   RATE     750.000    
 BOUNDARY     26   LAYER   1   ROW     2   COL    11   RATE     750.000    
 BOUNDARY     27   LAYER   1   ROW     2   COL    12   RATE     750.000    
 BOUNDARY     28   LAYER   1   ROW     2   COL    13   RATE     750.000    
 BOUNDARY     29   LAYER   1   ROW     2   COL    14   RATE     750.000    
 BOUNDARY     30   LAYER   1   ROW     2   COL    15   RATE     750.000    
 BOUNDARY     31   LAYER   1   ROW     3   COL     1   RATE     750.000    
 BOUNDARY     32   LAYER   1   ROW     3   COL     2   RATE     750.000    
 BOUNDARY     33   LAYER   1   ROW     3   COL     3   RATE     750.000    
 BOUNDARY     34   LAYER   1   ROW     3   COL     4   RATE     750.000    
 BOUNDARY     35   LAYER   1   ROW     3   COL     5   RATE     750.000    
 BOUNDARY     36   LAYER   1   ROW     3   COL     6   RATE     750.000    
 BOUNDARY     37   LAYER   1   ROW     3   COL     7   RATE     750.000    
 BOUNDARY     38   LAYER   1   ROW     3   COL     8   RATE     750.000    
 BOUNDARY     39   LAYER   1   ROW     3   COL     9   RATE     750.000    
 BOUNDARY     40   LAYER   1   ROW     3   COL    10   RATE     750.000    
 BOUNDARY     41   LAYER   1   ROW     3   COL    11   RATE     750.000    
 BOUNDARY     42   LAYER   1   ROW     3   COL    12   RATE     750.000    
 BOUNDARY     43   LAYER   1   ROW     3   COL    13   RATE     750.000    
 BOUNDARY     44   LAYER   1   ROW     3   COL    14   RATE     750.000    
 BOUNDARY     45   LAYER   1   ROW     3   COL    15   RATE     750.000    
 BOUNDARY     47   LAYER   1   ROW     4   COL     2   RATE     750.000    
 BOUNDARY     48   LAYER   1   ROW     4   COL     3   RATE     750.000    
 BOUNDARY     49   LAYER   1   ROW     4   COL     4   RATE     750.000    
 BOUNDARY     50   LAYER   1   ROW     4   COL     5   RATE     750.000    
 BOUNDARY     51   LAYER   1   ROW     4   COL     6   RATE     750.000    
 BOUNDARY     52   LAYER   1   ROW     4   COL     7   RATE     750.000    
 BOUNDARY     53   LAYER   1   ROW     4   COL     8   RATE     750.000    
 BOUNDARY     54   LAYER   1   ROW     4   COL     9   RATE     750.000    
 BOUNDARY     55   LAYER   1   ROW     4   COL    10   RATE     750.000    
 BOUNDARY     56   LAYER   1   ROW     4   COL    11   RATE     750.000    
 BOUNDARY     57   LAYER   1   ROW     4   COL    12   RATE     750.000    
 BOUNDARY     58   LAYER   1   ROW     4   COL    13   RATE     750.000    
 BOUNDARY     59   LAYER   1   ROW     4   COL    14   RATE     750.000    
 BOUNDARY     60   LAYER   1   ROW     4   COL    15   RATE     750.000    
 BOUNDARY     62   LAYER   1   ROW     5   COL     2   RATE     750.000    
 BOUNDARY     63   LAYER   1   ROW     5   COL     3   RATE     750.000    
 BOUNDARY     64   LAYER   1   ROW     5   COL     4   RATE     750.000    
 BOUNDARY     65   LAYER   1   ROW     5   COL     5   RATE     750.000    
 BOUNDARY     66   LAYER   1   ROW     5   COL     6   RATE     750.000    
 BOUNDARY     67   LAYER   1   ROW     5   COL     7   RATE     750.000    
 BOUNDARY     68   LAYER   1   ROW     5   COL     8   RATE     750.000    
 BOUNDARY     69   LAYER   1   ROW     5   COL     9   RATE     750.000    
 BOUNDARY     70   LAYER   1   ROW     5   COL    10   RATE     750.000    
 BOUNDARY     71   LAYER   1   ROW     5   COL    11   RATE     750.000    
 BOUNDARY     72   LAYER   1   ROW     5   COL    12   RATE     750.000    
 BOUNDARY     73   LAYER   1   ROW     5   COL    13   RATE     750.000    
 BOUNDARY     74   LAYER   1   ROW     5   COL    14   RATE     750.000    
 BOUNDARY     75   LAYER   1   ROW     5   COL    15   RATE     750.000    
 BOUNDARY     77   LAYER   1   ROW     6   COL     2   RATE     750.000    
 BOUNDARY     78   LAYER   1   ROW     6   COL     3   RATE     750.000    
 BOUNDARY     79   LAYER   1   ROW     6   COL     4   RATE     750.000    
 BOUNDARY     80   LAYER   1   ROW     6   COL     5   RATE     750.000    
 BOUNDARY     81   LAYER   1   ROW     6   COL     6   RATE     750.000    
 BOUNDARY     82   LAYER   1   ROW     6   COL     7   RATE     750.000    
 BOUNDARY     83   LAYER   1   ROW     6   COL     8   RATE     750.000    
 BOUNDARY     84   LAYER   1   ROW     6   COL     9   RATE     750.000    
 BOUNDARY     85   LAYER   1   ROW     6   COL    10   RATE     750.000    
 BOUNDARY     86   LAYER   1   ROW     6   COL    11   RATE     750.000    
 BOUNDARY     87   LAYER   1   ROW     6   COL    12   RATE     750.000    
 BOUNDARY     88   LAYER   1   ROW     6   COL    13   RATE     750.000    
 BOUNDARY     89   LAYER   1   ROW     6   COL    14   RATE     750.000    
 BOUNDARY     90   LAYER   1   ROW     6   COL    15   RATE     750.000    
 BOUNDARY     91   LAYER   1   ROW     7   COL     1   RATE     750.000    
 BOUNDARY     92   LAYER   1   ROW     7   COL     2   RATE     750.000    
 BOUNDARY     93   LAYER   1   ROW     7   COL     3   RATE     750.000    
 BOUNDARY     94   LAYER   1   ROW     7   COL     4   RATE     750.000    
 BOUNDARY     95   LAYER   1   ROW     7   COL     5   RATE     750.000    
 BOUNDARY     96   LAYER   1   ROW     7   COL     6   RATE     750.000    
 BOUNDARY     97   LAYER   1   ROW     7   COL     7   RATE     750.000    
 BOUNDARY     98   LAYER   1   ROW     7   COL     8   RATE     750.000    
 BOUNDARY     99   LAYER   1   ROW     7   COL     9   RATE     750.000    
 BOUNDARY    100   LAYER   1   ROW     7   COL    10   RATE     750.000    
 BOUNDARY    101   LAYER   1   ROW     7   COL    11   RATE     750.000    
 BOUNDARY    102   LAYER   1   ROW     7   COL    12   RATE     750.000    
 BOUNDARY    103   LAYER   1   ROW     7   COL    13   RATE     750.000    
 BOUNDARY    104   LAYER   1   ROW     7   COL    14   RATE     750.000    
 BOUNDARY    105   LAYER   1   ROW     7   COL    15   RATE     750.000    
 BOUNDARY    106   LAYER   1   ROW     8   COL     1   RATE     750.000    
 BOUNDARY    107   LAYER   1   ROW     8   COL     2   RATE     750.000    
 BOUNDARY    108   LAYER   1   ROW     8   COL     3   RATE     750.000    
 BOUNDARY    109   LAYER   1   ROW     8   COL     4   RATE     750.000    
 BOUNDARY    110   LAYER   1   ROW     8   COL     5   RATE     750.000    
 BOUNDARY    111   LAYER   1   ROW     8   COL     6   RATE     750.000    
 BOUNDARY    112   LAYER   1   ROW     8   COL     7   RATE     750.000    
 BOUNDARY    113   LAYER   1   ROW     8   COL     8   RATE     750.000    
 BOUNDARY    114   LAYER   1   ROW     8   COL     9   RATE     750.000    
 BOUNDARY    115   LAYER   1   ROW     8   COL    10   RATE     750.000    
 BOUNDARY    116   LAYER   1   ROW     8   COL    11   RATE     750.000    
 BOUNDARY    117   LAYER   1   ROW     8   COL    12   RATE     750.000    
 BOUNDARY    118   LAYER   1   ROW     8   COL    13   RATE     750.000    
 BOUNDARY    119   LAYER   1   ROW     8   COL    14   RATE     750.000    
 BOUNDARY    120   LAYER   1   ROW     8   COL    15   RATE     750.000    
 BOUNDARY    121   LAYER   1   ROW     9   COL     1   RATE     750.000    
 BOUNDARY    122   LAYER   1   ROW     9   COL     2   RATE     750.000    
 BOUNDARY    123   LAYER   1   ROW     9   COL     3   RATE     750.000    
 BOUNDARY    124   LAYER   1   ROW     9   COL     4   RATE     750.000    
 BOUNDARY    125   LAYER   1   ROW     9   COL     5   RATE     750.000    
 BOUNDARY    126   LAYER   1   ROW     9   COL     6   RATE     750.000    
 BOUNDARY    127   LAYER   1   ROW     9   COL     7   RATE     750.000    
 BOUNDARY    128   LAYER   1   ROW     9   COL     8   RATE     750.000    
 BOUNDARY    129   LAYER   1   ROW     9   COL     9   RATE     750.000    
 BOUNDARY    130   LAYER   1   ROW     9   COL    10   RATE     750.000    
 BOUNDARY    131   LAYER   1   ROW     9   COL    11   RATE     750.000    
 BOUNDARY    132   LAYER   1   ROW     9   COL    12   RATE     750.000    
 BOUNDARY    133   LAYER   1   ROW     9   COL    13   RATE     750.000    
 BOUNDARY    134   LAYER   1   ROW     9   COL    14   RATE     750.000    
 BOUNDARY    135   LAYER   1   ROW     9   COL    15   RATE     750.000    
 BOUNDARY    137   LAYER   1   ROW    10   COL     2   RATE     750.000    
 BOUNDARY    138   LAYER   1   ROW    10   COL     3   RATE     750.000    
 BOUNDARY    139   LAYER   1   ROW    10   COL     4   RATE     750.000    
 BOUNDARY    140   LAYER   1   ROW    10   COL     5   RATE     750.000    
 BOUNDARY    141   LAYER   1   ROW    10   COL     6   RATE     750.000    
 BOUNDARY    142   LAYER   1   ROW    10   COL     7   RATE     750.000    
 BOUNDARY    143   LAYER   1   ROW    10   COL     8   RATE     750.000    
 BOUNDARY    144   LAYER   1   ROW    10   COL     9   RATE     750.000    
 BOUNDARY    145   LAYER   1   ROW    10   COL    10   RATE     750.000    
 BOUNDARY    146   LAYER   1   ROW    10   COL    11   RATE     750.000    
 BOUNDARY    147   LAYER   1   ROW    10   COL    12   RATE     750.000    
 BOUNDARY    148   LAYER   1   ROW    10   COL    13   RATE     750.000    
 BOUNDARY    149   LAYER   1   ROW    10   COL    14   RATE     750.000    
 BOUNDARY    150   LAYER   1   ROW    10   COL    15   RATE     750.000    
 UBDSV4 SAVING ET SEGS          ON UNIT   1017 AT TIME STEP      4, STRESS PERIOD      3

 ET SEGS            PERIOD  3   STEP  4
 BOUNDARY      1   LAYER   1   ROW     1   COL    13   RATE    -69.9614      ET-1
 BOUNDARY      2   LAYER   1   ROW     2   COL    13   RATE    -132.348      ET-2
 BOUNDARY      3   LAYER   1   ROW     3   COL    13   RATE    -183.041      ET-3
 BOUNDARY      4   LAYER   1   ROW     4   COL    13   RATE    -222.743      ET-4
 BOUNDARY      5   LAYER   1   ROW     5   COL    13   RATE    -280.405      ET-5
 BOUNDARY      6   LAYER   1   ROW     6   COL    13   RATE    -279.542      ET-6
 BOUNDARY      7   LAYER   1   ROW     7   COL    13   RATE    -213.399      ET-7
 BOUNDARY      8   LAYER   1   ROW     8   COL    13   RATE    -168.907      ET-8
 BOUNDARY      9   LAYER   1   ROW     9   COL    13   RATE    -111.875      ET-9
 BOUNDARY     10   LAYER   1   ROW    10   COL    13   RATE    -36.2182      ET-10
 BOUNDARY     11   LAYER   1   ROW     1   COL    12   RATE    -108.737      ET-1
 BOUNDARY     12   LAYER   1   ROW     2   COL    12   RATE    -189.496      ET-2
 BOUNDARY     13   LAYER   1   ROW     3   COL    12   RATE    -257.346      ET-3
 BOUNDARY     14   LAYER   1   ROW     4   COL    12   RATE    -318.753      ET-4
 BOUNDARY     15   LAYER   1   ROW     5   COL    12   RATE    -408.146      ET-5
 BOUNDARY     16   LAYER   1   ROW     6   COL    12   RATE    -407.250      ET-6
 BOUNDARY     17   LAYER   1   ROW     7   COL    12   RATE    -306.091      ET-7
 BOUNDARY     18   LAYER   1   ROW     8   COL    12   RATE    -237.575      ET-8
 BOUNDARY     19   LAYER   1   ROW     9   COL    12   RATE    -164.700      ET-9
 BOUNDARY     20   LAYER   1   ROW    10   COL    12   RATE    -59.2238      ET-10
 UBDSV4 SAVING CONSTANT HEADS   ON UNIT   1017 AT TIME STEP      4, STRESS PERIOD      3

 CONSTANT HEADS     PERIOD  3   STEP  4
 BOUNDARY      1   LAYER   1   ROW     1   COL     1   RATE     2627.18      CHD-1
 BOUNDARY      2   LAYER   1   ROW     4   COL     1   RATE     4704.99    
 BOUNDARY      3   LAYER   1   ROW     5   COL     1   RATE     827.421      CHD_GP
 BOUNDARY      4   LAYER   1   ROW     6   COL     1   RATE     4310.36      CHD_GP
 BOUNDARY      5   LAYER   1   ROW    10   COL     1   RATE     1770.41      CHD-10

 HEAD WILL BE SAVED ON UNIT 1018 AT END OF TIME STEP    4, STRESS PERIOD    3
WEL   no.    2 value from time series:  -30000.     for time:  3.800     to  4.000    
WEL   no.    3 value from time series:  -7800.0     for time:  3.800     to  4.000    
RIV   no.    1 value from time series:   104.10     for time:  3.800     to  4.000    
RIV   no.    2 value from time series:   104.10     for time:  3.800     to  4.000    
RIV   no.    3 value from time series:   104.10     for time:  3.800     to  4.000    
RIV   no.    4 value from time series:   104.10     for time:  3.800     to  4.000    
RIV   no.    5 value from time series:   104.10     for time:  3.800     to  4.000    
RIV   no.    6 value from time series:   104.10     for time:  3.800     to  4.000    
RIV   no.    7 value from time series:   104.10     for time:  3.800     to  4.000    
RIV   no.    8 value from time series:   104.10     for time:  3.800     to  4.000    
RIV   no.    9 value from time series:   104.10     for time:  3.800     to  4.000    
RIV   no.   10 value from time series:   104.10     for time:  3.800     to  4.000    
RIV   no.   11 value from time series:   104.10     for time:  3.800     to  4.000    
RIV   no.   12 value from time series:   104.10     for time:  3.800     to  4.000    
RIV   no.   13 value from time series:   104.10     for time:  3.800     to  4.000    
RIV   no.   14 value from time series:   104.10     for time:  3.800     to  4.000    
RIV   no.   15 value from time series:   104.10     for time:  3.800     to  4.000    
RIV   no.   16 value from time series:   104.10     for time:  3.800     to  4.000    
RIV   no.   17 value from time series:   104.10     for time:  3.800     to  4.000    
RIV   no.   18 value from time series:   104.10     for time:  3.800     to  4.000    
RIV   no.   19 value from time series:   104.10     for time:  3.800     to  4.000    
RIV   no.   20 value from time series:   104.10     for time:  3.800     to  4.000    
EVT   no.    1 value from time series:   919.69     for time:  3.800     to  4.000    
EVT   no.    2 value from time series:   1839.4     for time:  3.800     to  4.000    
EVT   no.    3 value from time series:   2759.1     for time:  3.800     to  4.000    
EVT   no.    4 value from time series:   3678.8     for time:  3.800     to  4.000    
EVT   no.   10 value from time series:   459.84     for time:  3.800     to  4.000    
EVT   no.   11 value from time series:   919.69     for time:  3.800     to  4.000    
EVT   no.   12 value from time series:   1839.4     for time:  3.800     to  4.000    
EVT   no.   13 value from time series:   2759.1     for time:  3.800     to  4.000    
EVT   no.   14 value from time series:   3678.8     for time:  3.800     to  4.000    
EVT   no.   20 value from time series:   459.84     for time:  3.800     to  4.000    
WEL   no.    2 value from time series:  -30000.     for time:  3.800     to  4.000    
WEL   no.    3 value from time series:  -7800.0     for time:  3.800     to  4.000    
RIV   no.    1 value from time series:   104.10     for time:  3.800     to  4.000    
RIV   no.    2 value from time series:   104.10     for time:  3.800     to  4.000    
RIV   no.    3 value from time series:   104.10     for time:  3.800     to  4.000    
RIV   no.    4 value from time series:   104.10     for time:  3.800     to  4.000    
RIV   no.    5 value from time series:   104.10     for time:  3.800     to  4.000    
RIV   no.    6 value from time series:   104.10     for time:  3.800     to  4.000    
RIV   no.    7 value from time series:   104.10     for time:  3.800     to  4.000    
RIV   no.    8 value from time series:   104.10     for time:  3.800     to  4.000    
RIV   no.    9 value from time series:   104.10     for time:  3.800     to  4.000    
RIV   no.   10 value from time series:   104.10     for time:  3.800     to  4.000    
RIV   no.   11 value from time series:   104.10     for time:  3.800     to  4.000    
RIV   no.   12 value from time series:   104.10     for time:  3.800     to  4.000    
RIV   no.   13 value from time series:   104.10     for time:  3.800     to  4.000    
RIV   no.   14 value from time series:   104.10     for time:  3.800     to  4.000    
RIV   no.   15 value from time series:   104.10     for time:  3.800     to  4.000    
RIV   no.   16 value from time series:   104.10     for time:  3.800     to  4.000    
RIV   no.   17 value from time series:   104.10     for time:  3.800     to  4.000    
RIV   no.   18 value from time series:   104.10     for time:  3.800     to  4.000    
RIV   no.   19 value from time series:   104.10     for time:  3.800     to  4.000    
RIV   no.   20 value from time series:   104.10     for time:  3.800     to  4.000    
EVT   no.    1 value from time series:   919.69     for time:  3.800     to  4.000    
EVT   no.    2 value from time series:   1839.4     for time:  3.800     to  4.000    
EVT   no.    3 value from time series:   2759.1     for time:  3.800     to  4.000    
EVT   no.    4 value from time series:   3678.8     for time:  3.800     to  4.000    
EVT   no.   10 value from time series:   459.84     for time:  3.800     to  4.000    
EVT   no.   11 value from time series:   919.69     for time:  3.800     to  4.000    
EVT   no.   12 value from time series:   1839.4     for time:  3.800     to  4.000    
EVT   no.   13 value from time series:   2759.1     for time:  3.800     to  4.000    
EVT   no.   14 value from time series:   3678.8     for time:  3.800     to  4.000    
EVT   no.   20 value from time series:   459.84     for time:  3.800     to  4.000    

 OUTPUT CONTROL FOR STRESS PERIOD    3   TIME STEP    5
    SAVE BUDGET
    SAVE HEAD
    SAVE HEAD FOR ALL LAYERS
 UBDSV1 SAVING      STORAGE(SS) ON UNIT   1017 AT TIME STEP      5, STRESS PERIOD      3
 UBDSV1 SAVING      STORAGE(SY) ON UNIT   1017 AT TIME STEP      5, STRESS PERIOD      3
 UBDSV1 SAVING FLOW RIGHT FACE  ON UNIT   1017 AT TIME STEP      5, STRESS PERIOD      3
 UBDSV1 SAVING FLOW FRONT FACE  ON UNIT   1017 AT TIME STEP      5, STRESS PERIOD      3
 UBDSV1 SAVING FLOW LOWER FACE  ON UNIT   1017 AT TIME STEP      5, STRESS PERIOD      3
 UBDSV4 SAVING WELLS NEAR RIVER ON UNIT   1017 AT TIME STEP      5, STRESS PERIOD      3

 WELLS NEAR RIVER   PERIOD  3   STEP  5
 BOUNDARY      1   LAYER   1   ROW     2   COL     3   RATE    -50.0000    
 BOUNDARY      2   LAYER   2   ROW     3   COL     4   RATE    -30000.0      WELL_1
 BOUNDARY      3   LAYER   2   ROW     8   COL     4   RATE    -7800.00      WELL_2
 UBDSV4 SAVING RIVER            ON UNIT   1017 AT TIME STEP      5, STRESS PERIOD      3

 RIVER              PERIOD  3   STEP  5
 BOUNDARY      1   LAYER   1   ROW     1   COL    15   RATE     10734.8    
 BOUNDARY      2   LAYER   1   ROW     2   COL    15   RATE     10752.4      RIV2
 BOUNDARY      3   LAYER   1   ROW     3   COL    15   RATE     10778.9      RIV3
 BOUNDARY      4   LAYER   1   ROW     4   COL    15   RATE     10806.5    
 BOUNDARY      5   LAYER   1   ROW     5   COL    15   RATE     10828.0    
 BOUNDARY      6   LAYER   1   ROW     6   COL    15   RATE     10828.6    
 BOUNDARY      7   LAYER   1   ROW     7   COL    15   RATE     10808.0      RIVX
 BOUNDARY      8   LAYER   1   ROW     8   COL    15   RATE     10777.4      RIVX
 BOUNDARY      9   LAYER   1   ROW     9   COL    15   RATE     10745.5      RIVX
 BOUNDARY     10   LAYER   1   ROW    10   COL    15   RATE     10722.6    
 BOUNDARY     11   LAYER   2   ROW     1   COL    15   RATE     25.4000    
 BOUNDARY     12   LAYER   2   ROW     2   COL    15   RATE     27.7534      RIV2
 BOUNDARY     13   LAYER   2   ROW     3   COL    15   RATE     31.4741      RIV3
 BOUNDARY     14   LAYER   2   ROW     4   COL    15   RATE     35.3222    
 BOUNDARY     15   LAYER   2   ROW     5   COL    15   RATE     37.9720    
 BOUNDARY     16   LAYER   2   ROW     6   COL    15   RATE     37.9586    
 BOUNDARY     17   LAYER   2   ROW     7   COL    15   RATE     35.1830      RIVX
 BOUNDARY     18   LAYER   2   ROW     8   COL    15   RATE     30.8565      RIVX
 BOUNDARY     19   LAYER   2   ROW     9   COL    15   RATE     26.4361      RIVX
 BOUNDARY     20   LAYER   2   ROW    10   COL    15   RATE     23.5175    

 GHB LAKES          PERIOD  3   STEP  5
 BOUNDARY      1   LAYER   1   ROW     3   COL     1   RATE    -7890.01    
 BOUNDARY      2   LAYER   1   ROW     7   COL     1   RATE     4351.95      GHB2_UPPER
 BOUNDARY      3   LAYER   1   ROW     7   COL     1   RATE    -11014.7      GHB2_LOWER
 UBDSV4 SAVING RECHARGE         ON UNIT   1017 AT TIME STEP      5, STRESS PERIOD      3

 RECHARGE           PERIOD  3   STEP  5
 BOUNDARY      2   LAYER   1   ROW     1   COL     2   RATE     750.000    
 BOUNDARY      3   LAYER   1   ROW     1   COL     3   RATE     750.000    
 BOUNDARY      4   LAYER   1   ROW     1   COL     4   RATE     750.000    
 BOUNDARY      5   LAYER   1   ROW     1   COL     5   RATE     750.000    
 BOUNDARY      6   LAYER   1   ROW     1   COL     6   RATE     750.000    
 BOUNDARY      7   LAYER   1   ROW     1   COL     7   RATE     750.000    
 BOUNDARY      8   LAYER   1   ROW     1   COL     8   RATE     750.000    
 BOUNDARY      9   LAYER   1   ROW     1   COL     9   RATE     750.000    
 BOUNDARY     10   LAYER   1   ROW     1   COL    10   RATE     750.000    
 BOUNDARY     11   LAYER   1   ROW     1   COL    11   RATE     750.000    
 BOUNDARY     12   LAYER   1   ROW     1   COL    12   RATE     750.000    
 BOUNDARY     13   LAYER   1   ROW     1   COL    13   RATE     750.000    
 BOUNDARY     14   LAYER   1   ROW     1   COL    14   RATE     750.000    
 BOUNDARY     15   LAYER   1   ROW     1   COL    15   RATE     750.000    
 BOUNDARY     16   LAYER   1   ROW     2   COL     1   RATE     750.000    
 BOUNDARY     17   LAYER   1   ROW     2   COL     2   RATE     750.000    
 BOUNDARY     18   LAYER   1   ROW     2   COL     3   RATE     750.000    
 BOUNDARY     19   LAYER   1   ROW     2   COL     4   RATE     750.000    
 BOUNDARY     20   LAYER   1   ROW     2   COL     5   RATE     750.000    
 BOUNDARY     21   LAYER   1   ROW     2   COL     6   RATE     750.000    
 BOUNDARY     22   LAYER   1   ROW     2   COL     7   RATE     750.000    
 BOUNDARY     23   LAYER   1   ROW     2   COL     8   RATE     750.000    
 BOUNDARY     24   LAYER   1   ROW     2   COL     9   RATE     750.000    
 BOUNDARY     25   LAYER   1   ROW     2   COL    10   RATE     750.000    
 BOUNDARY     26   LAYER   1   ROW     2   COL    11   RATE     750.000    
 BOUNDARY     27   LAYER   1   ROW     2   COL    12   RATE     750.000    
 BOUNDARY     28   LAYER   1   ROW     2   COL    13   RATE     750.000    
 BOUNDARY     29   LAYER   1   ROW     2   COL    14   RATE     750.000    
 BOUNDARY     30   LAYER   1   ROW     2   COL    15   RATE     750.000    
 BOUNDARY     31   LAYER   1   ROW     3   COL     1   RATE     750.000    
 BOUNDARY     32   LAYER   1   ROW     3   COL     2   RATE     750.000    
 BOUNDARY     33   LAYER   1   ROW     3   COL     3   RATE     750.000    
 BOUNDARY     34   LAYER   1   ROW     3   COL     4   RATE     750.000    
 BOUNDARY     35   LAYER   1   ROW     3   COL     5   RATE     750.000    
 BOUNDARY     36   LAYER   1   ROW     3   COL     6   RATE     750.000    
 BOUNDARY     37   LAYER   1   ROW     3   COL     7   RATE     750.000    
 BOUNDARY     38   LAYER   1   ROW     3   COL     8   RATE     750.000    
 BOUNDARY     39   LAYER   1   ROW     3   COL     9   RATE     750.000    
 BOUNDARY     40   LAYER   1   ROW     3   COL    10   RATE     750.000    
 BOUNDARY     41   LAYER   1   ROW     3   COL    11   RATE     750.000    
 BOUNDARY     42   LAYER   1   ROW     3   COL    12   RATE     750.000    
 BOUNDARY     43   LAYER   1   ROW     3   COL    13   RATE     750.000    
 BOUNDARY     44   LAYER   1   ROW     3   COL    14   RATE     750.000    
 BOUNDARY     45   LAYER   1   ROW     3   COL    15   RATE     750.000    
 BOUNDARY     47   LAYER   1   ROW     4   COL     2   RATE     750.000    
 BOUNDARY     48   LAYER   1   ROW     4   COL     3   RATE     750.000    
 BOUNDARY     49   LAYER   1   ROW     4   COL     4   RATE     750.000    
 BOUNDARY     50   LAYER   1   ROW     4   COL     5   RATE     750.000    
 BOUNDARY     51   LAYER   1   ROW     4   COL     6   RATE     750.000    
 BOUNDARY     52   LAYER   1   ROW     4   COL     7   RATE     750.000    
 BOUNDARY     53   LAYER   1   ROW     4   COL     8   RATE     750.000    
 BOUNDARY     54   LAYER   1   ROW     4   COL     9   RATE     750.000    
 BOUNDARY     55   LAYER   1   ROW     4   COL    10   RATE     750.000    
 BOUNDARY     56   LAYER   1   ROW     4   COL    11   RATE     750.000    
 BOUNDARY     57   LAYER   1   ROW     4   COL    12   RATE     750.000    
 BOUNDARY     58   LAYER   1   ROW     4   COL    13   RATE     750.000    
 BOUNDARY     59   LAYER   1   ROW     4   COL    14   RATE     750.000    
 BOUNDARY     60   LAYER   1   ROW     4   COL    15   RATE     750.000    
 BOUNDARY     62   LAYER   1   ROW     5   COL     2   RATE     750.000    
 BOUNDARY     63   LAYER   1   ROW     5   COL     3   RATE     750.000    
 BOUNDARY     64   LAYER   1   ROW     5   COL     4   RATE     750.000    
 BOUNDARY     65   LAYER   1   ROW     5   COL     5   RATE     750.000    
 BOUNDARY     66   LAYER   1   ROW     5   COL     6   RATE     750.000    
 BOUNDARY     67   LAYER   1   ROW     5   COL     7   RATE     750.000    
 BOUNDARY     68   LAYER   1   ROW     5   COL     8   RATE     750.000    
 BOUNDARY     69   LAYER   1   ROW     5   COL     9   RATE     750.000    
 BOUNDARY     70   LAYER   1   ROW     5   COL    10   RATE     750.000    
 BOUNDARY     71   LAYER   1   ROW     5   COL    11   RATE     750.000    
 BOUNDARY     72   LAYER   1   ROW     5   COL    12   RATE     750.000    
 BOUNDARY     73   LAYER   1   ROW     5   COL    13   RATE     750.000    
 BOUNDARY     74   LAYER   1   ROW     5   COL    14   RATE     750.000    
 BOUNDARY     75   LAYER   1   ROW     5   COL    15   RATE     750.000    
 BOUNDARY     77   LAYER   1   ROW     6   COL     2   RATE     750.000    
 BOUNDARY     78   LAYER   1   ROW     6   COL     3   RATE     750.000    
 BOUNDARY     79   LAYER   1   ROW     6   COL     4   RATE     750.000    
 BOUNDARY     80   LAYER   1   ROW     6   COL     5   RATE     750.000    
 BOUNDARY     81   LAYER   1   ROW     6   COL     6   RATE     750.000    
 BOUNDARY     82   LAYER   1   ROW     6   COL     7   RATE     750.000    
 BOUNDARY     83   LAYER   1   ROW     6   COL     8   RATE     750.000    
 BOUNDARY     84   LAYER   1   ROW     6   COL     9   RATE     750.000    
 BOUNDARY     85   LAYER   1   ROW     6   COL    10   RATE     750.000    
 BOUNDARY     86   LAYER   1   ROW     6   COL    11   RATE     750.000    
 BOUNDARY     87   LAYER   1   ROW     6   COL    12   RATE     750.000    
 BOUNDARY     88   LAYER   1   ROW     6   COL    13   RATE     750.000    
 BOUNDARY     89   LAYER   1   ROW     6   COL    14   RATE     750.000    
 BOUNDARY     90   LAYER   1   ROW     6   COL    15   RATE     750.000    
 BOUNDARY     91   LAYER   1   ROW     7   COL     1   RATE     750.000    
 BOUNDARY     92   LAYER   1   ROW     7   COL     2   RATE     750.000    
 BOUNDARY     93   LAYER   1   ROW     7   COL     3   RATE     750.000    
 BOUNDARY     94   LAYER   1   ROW     7   COL     4   RATE     750.000    
 BOUNDARY     95   LAYER   1   ROW     7   COL     5   RATE     750.000    
 BOUNDARY     96   LAYER   1   ROW     7   COL     6   RATE     750.000    
 BOUNDARY     97   LAYER   1   ROW     7   COL     7   RATE     750.000    
 BOUNDARY     98   LAYER   1   ROW     7   COL     8   RATE     750.000    
 BOUNDARY     99   LAYER   1   ROW     7   COL     9   RATE     750.000    
 BOUNDARY    100   LAYER   1   ROW     7   COL    10   RATE     750.000    
 BOUNDARY    101   LAYER   1   ROW     7   COL    11   RATE     750.000    
 BOUNDARY    102   LAYER   1   ROW     7   COL    12   RATE     750.000    
 BOUNDARY    103   LAYER   1   ROW     7   COL    13   RATE     750.000    
 BOUNDARY    104   LAYER   1   ROW     7   COL    14   RATE     750.000    
 BOUNDARY    105   LAYER   1   ROW     7   COL    15   RATE     750.000    
 BOUNDARY    106   LAYER   1   ROW     8   COL     1   RATE     750.000    
 BOUNDARY    107   LAYER   1   ROW     8   COL     2   RATE     750.000    
 BOUNDARY    108   LAYER   1   ROW     8   COL     3   RATE     750.000    
 BOUNDARY    109   LAYER   1   ROW     8   COL     4   RATE     750.000    
 BOUNDARY    110   LAYER   1   ROW     8   COL     5   RATE     750.000    
 BOUNDARY    111   LAYER   1   ROW     8   COL     6   RATE     750.000    
 BOUNDARY    112   LAYER   1   ROW     8   COL     7   RATE     750.000    
 BOUNDARY    113   LAYER   1   ROW     8   COL     8   RATE     750.000    
 BOUNDARY    114   LAYER   1   ROW     8   COL     9   RATE     750.000    
 BOUNDARY    115   LAYER   1   ROW     8   COL    10   RATE     750.000    
 BOUNDARY    116   LAYER   1   ROW     8   COL    11   RATE     750.000    
 BOUNDARY    117   LAYER   1   ROW     8   COL    12   RATE     750.000    
 BOUNDARY    118   LAYER   1   ROW     8   COL    13   RATE     750.000    
 BOUNDARY    119   LAYER   1   ROW     8   COL    14   RATE     750.000    
 BOUNDARY    120   LAYER   1   ROW     8   COL    15   RATE     750.000    
 BOUNDARY    121   LAYER   1   ROW     9   COL     1   RATE     750.000    
 BOUNDARY    122   LAYER   1   ROW     9   COL     2   RATE     750.000    
 BOUNDARY    123   LAYER   1   ROW     9   COL     3   RATE     750.000    
 BOUNDARY    124   LAYER   1   ROW     9   COL     4   RATE     750.000    
 BOUNDARY    125   LAYER   1   ROW     9   COL     5   RATE     750.000    
 BOUNDARY    126   LAYER   1   ROW     9   COL     6   RATE     750.000    
 BOUNDARY    127   LAYER   1   ROW     9   COL     7   RATE     750.000    
 BOUNDARY    128   LAYER   1   ROW     9   COL     8   RATE     750.000    
 BOUNDARY    129   LAYER   1   ROW     9   COL     9   RATE     750.000    
 BOUNDARY    130   LAYER   1   ROW     9   COL    10   RATE     750.000    
 BOUNDARY    131   LAYER   1   ROW     9   COL    11   RATE     750.000    
 BOUNDARY    132   LAYER   1   ROW     9   COL    12   RATE     750.000    
 BOUNDARY    133   LAYER   1   ROW     9   COL    13   RATE     750.000    
 BOUNDARY    134   LAYER   1   ROW     9   COL    14   RATE     750.000    
 BOUNDARY    135   LAYER   1   ROW     9   COL    15   RATE     750.000    
 BOUNDARY    137   LAYER   1   ROW    10   COL     2   RATE     750.000    
 BOUNDARY    138   LAYER   1   ROW    10   COL     3   RATE     750.000    
 BOUNDARY    139   LAYER   1   ROW    10   COL     4   RATE     750.000    
 BOUNDARY    140   LAYER   1   ROW    10   COL     5   RATE     750.000    
 BOUNDARY    141   LAYER   1   ROW    10   COL     6   RATE     750.000    
 BOUNDARY    142   LAYER   1   ROW    10   COL     7   RATE     750.000    
 BOUNDARY    143   LAYER   1   ROW    10   COL     8   RATE     750.000    
 BOUNDARY    144   LAYER   1   ROW    10   COL     9   RATE     750.000    
 BOUNDARY    145   LAYER   1   ROW    10   COL    10   RATE     750.000    
 BOUNDARY    146   LAYER   1   ROW    10   COL    11   RATE     750.000    
 BOUNDARY    147   LAYER   1   ROW    10   COL    12   RATE     750.000    
 BOUNDARY    148   LAYER   1   ROW    10   COL    13   RATE     750.000    
 BOUNDARY    149   LAYER   1   ROW    10   COL    14   RATE     750.000    
 BOUNDARY    150   LAYER   1   ROW    10   COL    15   RATE     750.000    
 UBDSV4 SAVING ET SEGS          ON UNIT   1017 AT TIME STEP      5, STRESS PERIOD      3

 ET SEGS            PERIOD  3   STEP  5
 BOUNDARY      1   LAYER   1   ROW     1   COL    13   RATE    -71.3711      ET-1
 BOUNDARY      2   LAYER   1   ROW     2   COL    13   RATE    -135.023      ET-2
 BOUNDARY      3   LAYER   1   ROW     3   COL    13   RATE    -186.760      ET-3
 BOUNDARY      4   LAYER   1   ROW     4   COL    13   RATE    -227.300      ET-4
 BOUNDARY      5   LAYER   1   ROW     5   COL    13   RATE    -280.963      ET-5
 BOUNDARY      6   LAYER   1   ROW     6   COL    13   RATE    -280.100      ET-6
 BOUNDARY      7   LAYER   1   ROW     7   COL    13   RATE    -213.791      ET-7
 BOUNDARY      8   LAYER   1   ROW     8   COL    13   RATE    -169.188      ET-8
 BOUNDARY      9   LAYER   1   ROW     9   COL    13   RATE    -112.044      ET-9
 BOUNDARY     10   LAYER   1   ROW    10   COL    13   RATE    -36.9466      ET-10
 BOUNDARY     11   LAYER   1   ROW     1   COL    12   RATE    -111.103      ET-1
 BOUNDARY     12   LAYER   1   ROW     2   COL    12   RATE    -193.688      ET-2
 BOUNDARY     13   LAYER   1   ROW     3   COL    12   RATE    -262.447      ET-3
 BOUNDARY     14   LAYER   1   ROW     4   COL    12   RATE    -325.092      ET-4
 BOUNDARY     15   LAYER   1   ROW     5   COL    12   RATE    -408.699      ET-5
 BOUNDARY     16   LAYER   1   ROW     6   COL    12   RATE    -407.803      ET-6
 BOUNDARY     17   LAYER   1   ROW     7   COL    12   RATE    -306.479      ET-7
 BOUNDARY     18   LAYER   1   ROW     8   COL    12   RATE    -237.853      ET-8
 BOUNDARY     19   LAYER   1   ROW     9   COL    12   RATE    -165.253      ET-9
 BOUNDARY     20   LAYER   1   ROW    10   COL    12   RATE    -60.4995      ET-10
 UBDSV4 SAVING CONSTANT HEADS   ON UNIT   1017 AT TIME STEP      5, STRESS PERIOD      3

 CONSTANT HEADS     PERIOD  3   STEP  5
 BOUNDARY      1   LAYER   1   ROW     1   COL     1   RATE     2626.67      CHD-1
 BOUNDARY      2   LAYER   1   ROW     4   COL     1   RATE     4705.73    
 BOUNDARY      3   LAYER   1   ROW     5   COL     1   RATE     827.718      CHD_GP
 BOUNDARY      4   LAYER   1   ROW     6   COL     1   RATE     4309.09      CHD_GP
 BOUNDARY      5   LAYER   1   ROW    10   COL     1   RATE     1768.06      CHD-10

 HEAD WILL BE SAVED ON UNIT 1018 AT END OF TIME STEP    5, STRESS PERIOD    3
WEL   no.    2 value from time series:  -30000.     for time:  4.000     to  4.200    
WEL   no.    3 value from time series:  -8200.0     for time:  4.000     to  4.200    
RIV   no.    1 value from time series:   103.95     for time:  4.000     to  4.200    
RIV   no.    2 value from time series:   103.95     for time:  4.000     to  4.200    
RIV   no.    3 value from time series:   103.95     for time:  4.000     to  4.200    
RIV   no.    4 value from time series:   103.95     for time:  4.000     to  4.200    
RIV   no.    5 value from time series:   103.95     for time:  4.000     to  4.200    
RIV   no.    6 value from time series:   103.95     for time:  4.000     to  4.200    
RIV   no.    7 value from time series:   103.95     for time:  4.000     to  4.200    
RIV   no.    8 value from time series:   103.95     for time:  4.000     to  4.200    
RIV   no.    9 value from time series:   103.95     for time:  4.000     to  4.200    
RIV   no.   10 value from time series:   103.95     for time:  4.000     to  4.200    
RIV   no.   11 value from time series:   103.95     for time:  4.000     to  4.200    
RIV   no.   12 value from time series:   103.95     for time:  4.000     to  4.200    
RIV   no.   13 value from time series:   103.95     for time:  4.000     to  4.200    
RIV   no.   14 value from time series:   103.95     for time:  4.000     to  4.200    
RIV   no.   15 value from time series:   103.95     for time:  4.000     to  4.200    
RIV   no.   16 value from time series:   103.95     for time:  4.000     to  4.200    
RIV   no.   17 value from time series:   103.95     for time:  4.000     to  4.200    
RIV   no.   18 value from time series:   103.95     for time:  4.000     to  4.200    
RIV   no.   19 value from time series:   103.95     for time:  4.000     to  4.200    
RIV   no.   20 value from time series:   103.95     for time:  4.000     to  4.200    
EVT   no.    1 value from time series:   936.56     for time:  4.000     to  4.200    
EVT   no.    2 value from time series:   1873.1     for time:  4.000     to  4.200    
EVT   no.    3 value from time series:   2809.7     for time:  4.000     to  4.200    
EVT   no.    4 value from time series:   3746.2     for time:  4.000     to  4.200    
EVT   no.   10 value from time series:   468.28     for time:  4.000     to  4.200    
EVT   no.   11 value from time series:   936.56     for time:  4.000     to  4.200    
EVT   no.   12 value from time series:   1873.1     for time:  4.000     to  4.200    
EVT   no.   13 value from time series:   2809.7     for time:  4.000     to  4.200    
EVT   no.   14 value from time series:   3746.2     for time:  4.000     to  4.200    
EVT   no.   20 value from time series:   468.28     for time:  4.000     to  4.200    
WEL   no.    2 value from time series:  -30000.     for time:  4.000     to  4.200    
WEL   no.    3 value from time series:  -8200.0     for time:  4.000     to  4.200    
RIV   no.    1 value from time series:   103.95     for time:  4.000     to  4.200    
RIV   no.    2 value from time series:   103.95     for time:  4.000     to  4.200    
RIV   no.    3 value from time series:   103.95     for time:  4.000     to  4.200    
RIV   no.    4 value from time series:   103.95     for time:  4.000     to  4.200    
RIV   no.    5 value from time series:   103.95     for time:  4.000     to  4.200    
RIV   no.    6 value from time series:   103.95     for time:  4.000     to  4.200    
RIV   no.    7 value from time series:   103.95     for time:  4.000     to  4.200    
RIV   no.    8 value from time series:   103.95     for time:  4.000     to  4.200    
RIV   no.    9 value from time series:   103.95     for time:  4.000     to  4.200    
RIV   no.   10 value from time series:   103.95     for time:  4.000     to  4.200    
RIV   no.   11 value from time series:   103.95     for time:  4.000     to  4.200    
RIV   no.   12 value from time series:   103.95     for time:  4.000     to  4.200    
RIV   no.   13 value from time series:   103.95     for time:  4.000     to  4.200    
RIV   no.   14 value from time series:   103.95     for time:  4.000     to  4.200    
RIV   no.   15 value from time series:   103.95     for time:  4.000     to  4.200    
RIV   no.   16 value from time series:   103.95     for time:  4.000     to  4.200    
RIV   no.   17 value from time series:   103.95     for time:  4.000     to  4.200    
RIV   no.   18 value from time series:   103.95     for time:  4.000     to  4.200    
RIV   no.   19 value from time series:   103.95     for time:  4.000     to  4.200    
RIV   no.   20 value from time series:   103.95     for time:  4.000     to  4.200    
EVT   no.    1 value from time series:   936.56     for time:  4.000     to  4.200    
EVT   no.    2 value from time series:   1873.1     for time:  4.000     to  4.200    
EVT   no.    3 value from time series:   2809.7     for time:  4.000     to  4.200    
EVT   no.    4 value from time series:   3746.2     for time:  4.000     to  4.200    
EVT   no.   10 value from time series:   468.28     for time:  4.000     to  4.200    
EVT   no.   11 value from time series:   936.56     for time:  4.000     to  4.200    
EVT   no.   12 value from time series:   1873.1     for time:  4.000     to  4.200    
EVT   no.   13 value from time series:   2809.7     for time:  4.000     to  4.200    
EVT   no.   14 value from time series:   3746.2     for time:  4.000     to  4.200    
EVT   no.   20 value from time series:   468.28     for time:  4.000     to  4.200    

 OUTPUT CONTROL FOR STRESS PERIOD    3   TIME STEP    6
    SAVE BUDGET
    SAVE HEAD
    SAVE HEAD FOR ALL LAYERS
 UBDSV1 SAVING      STORAGE(SS) ON UNIT   1017 AT TIME STEP      6, STRESS PERIOD      3
 UBDSV1 SAVING      STORAGE(SY) ON UNIT   1017 AT TIME STEP      6, STRESS PERIOD      3
 UBDSV1 SAVING FLOW RIGHT FACE  ON UNIT   1017 AT TIME STEP      6, STRESS PERIOD      3
 UBDSV1 SAVING FLOW FRONT FACE  ON UNIT   1017 AT TIME STEP      6, STRESS PERIOD      3
 UBDSV1 SAVING FLOW LOWER FACE  ON UNIT   1017 AT TIME STEP      6, STRESS PERIOD      3
 UBDSV4 SAVING WELLS NEAR RIVER ON UNIT   1017 AT TIME STEP      6, STRESS PERIOD      3

 WELLS NEAR RIVER   PERIOD  3   STEP  6
 BOUNDARY      1   LAYER   1   ROW     2   COL     3   RATE    -50.0000    
 BOUNDARY      2   LAYER   2   ROW     3   COL     4   RATE    -30000.0      WELL_1
 BOUNDARY      3   LAYER   2   ROW     8   COL     4   RATE    -8200.00      WELL_2
 UBDSV4 SAVING RIVER            ON UNIT   1017 AT TIME STEP      6, STRESS PERIOD      3

 RIVER              PERIOD  3   STEP  6
 BOUNDARY      1   LAYER   1   ROW     1   COL    15   RATE     8486.64    
 BOUNDARY      2   LAYER   1   ROW     2   COL    15   RATE     8504.27      RIV2
 BOUNDARY      3   LAYER   1   ROW     3   COL    15   RATE     8530.72      RIV3
 BOUNDARY      4   LAYER   1   ROW     4   COL    15   RATE     8558.27    
 BOUNDARY      5   LAYER   1   ROW     5   COL    15   RATE     8579.66    
 BOUNDARY      6   LAYER   1   ROW     6   COL    15   RATE     8580.30    
 BOUNDARY      7   LAYER   1   ROW     7   COL    15   RATE     8559.75      RIVX
 BOUNDARY      8   LAYER   1   ROW     8   COL    15   RATE     8529.24      RIVX
 BOUNDARY      9   LAYER   1   ROW     9   COL    15   RATE     8497.33      RIVX
 BOUNDARY     10   LAYER   1   ROW    10   COL    15   RATE     8474.55    
 BOUNDARY     11   LAYER   2   ROW     1   COL    15   RATE     16.9088    
 BOUNDARY     12   LAYER   2   ROW     2   COL    15   RATE     19.2261      RIV2
 BOUNDARY     13   LAYER   2   ROW     3   COL    15   RATE     22.8877      RIV3
 BOUNDARY     14   LAYER   2   ROW     4   COL    15   RATE     26.6757    
 BOUNDARY     15   LAYER   2   ROW     5   COL    15   RATE     29.2880    
 BOUNDARY     16   LAYER   2   ROW     6   COL    15   RATE     29.2768    
 BOUNDARY     17   LAYER   2   ROW     7   COL    15   RATE     26.5442      RIVX
 BOUNDARY     18   LAYER   2   ROW     8   COL    15   RATE     22.2863      RIVX
 BOUNDARY     19   LAYER   2   ROW     9   COL    15   RATE     17.9346      RIVX
 BOUNDARY     20   LAYER   2   ROW    10   COL    15   RATE     15.0593    

 GHB LAKES          PERIOD  3   STEP  6
 BOUNDARY      1   LAYER   1   ROW     3   COL     1   RATE    -7896.26    
 BOUNDARY      2   LAYER   1   ROW     7   COL     1   RATE     4346.42      GHB2_UPPER
 BOUNDARY      3   LAYER   1   ROW     7   COL     1   RATE    -11016.7      GHB2_LOWER
 UBDSV4 SAVING RECHARGE         ON UNIT   1017 AT TIME STEP      6, STRESS PERIOD      3

 RECHARGE           PERIOD  3   STEP  6
 BOUNDARY      2   LAYER   1   ROW     1   COL     2   RATE     750.000    
 BOUNDARY      3   LAYER   1   ROW     1   COL     3   RATE     750.000    
 BOUNDARY      4   LAYER   1   ROW     1   COL     4   RATE     750.000    
 BOUNDARY      5   LAYER   1   ROW     1   COL     5   RATE     750.000    
 BOUNDARY      6   LAYER   1   ROW     1   COL     6   RATE     750.000    
 BOUNDARY      7   LAYER   1   ROW     1   COL     7   RATE     750.000    
 BOUNDARY      8   LAYER   1   ROW     1   COL     8   RATE     750.000    
 BOUNDARY      9   LAYER   1   ROW     1   COL     9   RATE     750.000    
 BOUNDARY     10   LAYER   1   ROW     1   COL    10   RATE     750.000    
 BOUNDARY     11   LAYER   1   ROW     1   COL    11   RATE     750.000    
 BOUNDARY     12   LAYER   1   ROW     1   COL    12   RATE     750.000    
 BOUNDARY     13   LAYER   1   ROW     1   COL    13   RATE     750.000    
 BOUNDARY     14   LAYER   1   ROW     1   COL    14   RATE     750.000    
 BOUNDARY     15   LAYER   1   ROW     1   COL    15   RATE     750.000    
 BOUNDARY     16   LAYER   1   ROW     2   COL     1   RATE     750.000    
 BOUNDARY     17   LAYER   1   ROW     2   COL     2   RATE     750.000    
 BOUNDARY     18   LAYER   1   ROW     2   COL     3   RATE     750.000    
 BOUNDARY     19   LAYER   1   ROW     2   COL     4   RATE     750.000    
 BOUNDARY     20   LAYER   1   ROW     2   COL     5   RATE     750.000    
 BOUNDARY     21   LAYER   1   ROW     2   COL     6   RATE     750.000    
 BOUNDARY     22   LAYER   1   ROW     2   COL     7   RATE     750.000    
 BOUNDARY     23   LAYER   1   ROW     2   COL     8   RATE     750.000    
 BOUNDARY     24   LAYER   1   ROW     2   COL     9   RATE     750.000    
 BOUNDARY     25   LAYER   1   ROW     2   COL    10   RATE     750.000    
 BOUNDARY     26   LAYER   1   ROW     2   COL    11   RATE     750.000    
 BOUNDARY     27   LAYER   1   ROW     2   COL    12   RATE     750.000    
 BOUNDARY     28   LAYER   1   ROW     2   COL    13   RATE     750.000    
 BOUNDARY     29   LAYER   1   ROW     2   COL    14   RATE     750.000    
 BOUNDARY     30   LAYER   1   ROW     2   COL    15   RATE     750.000    
 BOUNDARY     31   LAYER   1   ROW     3   COL     1   RATE     750.000    
 BOUNDARY     32   LAYER   1   ROW     3   COL     2   RATE     750.000    
 BOUNDARY     33   LAYER   1   ROW     3   COL     3   RATE     750.000    
 BOUNDARY     34   LAYER   1   ROW     3   COL     4   RATE     750.000    
 BOUNDARY     35   LAYER   1   ROW     3   COL     5   RATE     750.000    
 BOUNDARY     36   LAYER   1   ROW     3   COL     6   RATE     750.000    
 BOUNDARY     37   LAYER   1   ROW     3   COL     7   RATE     750.000    
 BOUNDARY     38   LAYER   1   ROW     3   COL     8   RATE     750.000    
 BOUNDARY     39   LAYER   1   ROW     3   COL     9   RATE     750.000    
 BOUNDARY     40   LAYER   1   ROW     3   COL    10   RATE     750.000    
 BOUNDARY     41   LAYER   1   ROW     3   COL    11   RATE     750.000    
 BOUNDARY     42   LAYER   1   ROW     3   COL    12   RATE     750.000    
 BOUNDARY     43   LAYER   1   ROW     3   COL    13   RATE     750.000    
 BOUNDARY     44   LAYER   1   ROW     3   COL    14   RATE     750.000    
 BOUNDARY     45   LAYER   1   ROW     3   COL    15   RATE     750.000    
 BOUNDARY     47   LAYER   1   ROW     4   COL     2   RATE     750.000    
 BOUNDARY     48   LAYER   1   ROW     4   COL     3   RATE     750.000    
 BOUNDARY     49   LAYER   1   ROW     4   COL     4   RATE     750.000    
 BOUNDARY     50   LAYER   1   ROW     4   COL     5   RATE     750.000    
 BOUNDARY     51   LAYER   1   ROW     4   COL     6   RATE     750.000    
 BOUNDARY     52   LAYER   1   ROW     4   COL     7   RATE     750.000    
 BOUNDARY     53   LAYER   1   ROW     4   COL     8   RATE     750.000    
 BOUNDARY     54   LAYER   1   ROW     4   COL     9   RATE     750.000    
 BOUNDARY     55   LAYER   1   ROW     4   COL    10   RATE     750.000    
 BOUNDARY     56   LAYER   1   ROW     4   COL    11   RATE     750.000    
 BOUNDARY     57   LAYER   1   ROW     4   COL    12   RATE     750.000    
 BOUNDARY     58   LAYER   1   ROW     4   COL    13   RATE     750.000    
 BOUNDARY     59   LAYER   1   ROW     4   COL    14   RATE     750.000    
 BOUNDARY     60   LAYER   1   ROW     4   COL    15   RATE     750.000    
 BOUNDARY     62   LAYER   1   ROW     5   COL     2   RATE     750.000    
 BOUNDARY     63   LAYER   1   ROW     5   COL     3   RATE     750.000    
 BOUNDARY     64   LAYER   1   ROW     5   COL     4   RATE     750.000    
 BOUNDARY     65   LAYER   1   ROW     5   COL     5   RATE     750.000    
 BOUNDARY     66   LAYER   1   ROW     5   COL     6   RATE     750.000    
 BOUNDARY     67   LAYER   1   ROW     5   COL     7   RATE     750.000    
 BOUNDARY     68   LAYER   1   ROW     5   COL     8   RATE     750.000    
 BOUNDARY     69   LAYER   1   ROW     5   COL     9   RATE     750.000    
 BOUNDARY     70   LAYER   1   ROW     5   COL    10   RATE     750.000    
 BOUNDARY     71   LAYER   1   ROW     5   COL    11   RATE     750.000    
 BOUNDARY     72   LAYER   1   ROW     5   COL    12   RATE     750.000    
 BOUNDARY     73   LAYER   1   ROW     5   COL    13   RATE     750.000    
 BOUNDARY     74   LAYER   1   ROW     5   COL    14   RATE     750.000    
 BOUNDARY     75   LAYER   1   ROW     5   COL    15   RATE     750.000    
 BOUNDARY     77   LAYER   1   ROW     6   COL     2   RATE     750.000    
 BOUNDARY     78   LAYER   1   ROW     6   COL     3   RATE     750.000    
 BOUNDARY     79   LAYER   1   ROW     6   COL     4   RATE     750.000    
 BOUNDARY     80   LAYER   1   ROW     6   COL     5   RATE     750.000    
 BOUNDARY     81   LAYER   1   ROW     6   COL     6   RATE     750.000    
 BOUNDARY     82   LAYER   1   ROW     6   COL     7   RATE     750.000    
 BOUNDARY     83   LAYER   1   ROW     6   COL     8   RATE     750.000    
 BOUNDARY     84   LAYER   1   ROW     6   COL     9   RATE     750.000    
 BOUNDARY     85   LAYER   1   ROW     6   COL    10   RATE     750.000    
 BOUNDARY     86   LAYER   1   ROW     6   COL    11   RATE     750.000    
 BOUNDARY     87   LAYER   1   ROW     6   COL    12   RATE     750.000    
 BOUNDARY     88   LAYER   1   ROW     6   COL    13   RATE     750.000    
 BOUNDARY     89   LAYER   1   ROW     6   COL    14   RATE     750.000    
 BOUNDARY     90   LAYER   1   ROW     6   COL    15   RATE     750.000    
 BOUNDARY     91   LAYER   1   ROW     7   COL     1   RATE     750.000    
 BOUNDARY     92   LAYER   1   ROW     7   COL     2   RATE     750.000    
 BOUNDARY     93   LAYER   1   ROW     7   COL     3   RATE     750.000    
 BOUNDARY     94   LAYER   1   ROW     7   COL     4   RATE     750.000    
 BOUNDARY     95   LAYER   1   ROW     7   COL     5   RATE     750.000    
 BOUNDARY     96   LAYER   1   ROW     7   COL     6   RATE     750.000    
 BOUNDARY     97   LAYER   1   ROW     7   COL     7   RATE     750.000    
 BOUNDARY     98   LAYER   1   ROW     7   COL     8   RATE     750.000    
 BOUNDARY     99   LAYER   1   ROW     7   COL     9   RATE     750.000    
 BOUNDARY    100   LAYER   1   ROW     7   COL    10   RATE     750.000    
 BOUNDARY    101   LAYER   1   ROW     7   COL    11   RATE     750.000    
 BOUNDARY    102   LAYER   1   ROW     7   COL    12   RATE     750.000    
 BOUNDARY    103   LAYER   1   ROW     7   COL    13   RATE     750.000    
 BOUNDARY    104   LAYER   1   ROW     7   COL    14   RATE     750.000    
 BOUNDARY    105   LAYER   1   ROW     7   COL    15   RATE     750.000    
 BOUNDARY    106   LAYER   1   ROW     8   COL     1   RATE     750.000    
 BOUNDARY    107   LAYER   1   ROW     8   COL     2   RATE     750.000    
 BOUNDARY    108   LAYER   1   ROW     8   COL     3   RATE     750.000    
 BOUNDARY    109   LAYER   1   ROW     8   COL     4   RATE     750.000    
 BOUNDARY    110   LAYER   1   ROW     8   COL     5   RATE     750.000    
 BOUNDARY    111   LAYER   1   ROW     8   COL     6   RATE     750.000    
 BOUNDARY    112   LAYER   1   ROW     8   COL     7   RATE     750.000    
 BOUNDARY    113   LAYER   1   ROW     8   COL     8   RATE     750.000    
 BOUNDARY    114   LAYER   1   ROW     8   COL     9   RATE     750.000    
 BOUNDARY    115   LAYER   1   ROW     8   COL    10   RATE     750.000    
 BOUNDARY    116   LAYER   1   ROW     8   COL    11   RATE     750.000    
 BOUNDARY    117   LAYER   1   ROW     8   COL    12   RATE     750.000    
 BOUNDARY    118   LAYER   1   ROW     8   COL    13   RATE     750.000    
 BOUNDARY    119   LAYER   1   ROW     8   COL    14   RATE     750.000    
 BOUNDARY    120   LAYER   1   ROW     8   COL    15   RATE     750.000    
 BOUNDARY    121   LAYER   1   ROW     9   COL     1   RATE     750.000    
 BOUNDARY    122   LAYER   1   ROW     9   COL     2   RATE     750.000    
 BOUNDARY    123   LAYER   1   ROW     9   COL     3   RATE     750.000    
 BOUNDARY    124   LAYER   1   ROW     9   COL     4   RATE     750.000    
 BOUNDARY    125   LAYER   1   ROW     9   COL     5   RATE     750.000    
 BOUNDARY    126   LAYER   1   ROW     9   COL     6   RATE     750.000    
 BOUNDARY    127   LAYER   1   ROW     9   COL     7   RATE     750.000    
 BOUNDARY    128   LAYER   1   ROW     9   COL     8   RATE     750.000    
 BOUNDARY    129   LAYER   1   ROW     9   COL     9   RATE     750.000    
 BOUNDARY    130   LAYER   1   ROW     9   COL    10   RATE     750.000    
 BOUNDARY    131   LAYER   1   ROW     9   COL    11   RATE     750.000    
 BOUNDARY    132   LAYER   1   ROW     9   COL    12   RATE     750.000    
 BOUNDARY    133   LAYER   1   ROW     9   COL    13   RATE     750.000    
 BOUNDARY    134   LAYER   1   ROW     9   COL    14   RATE     750.000    
 BOUNDARY    135   LAYER   1   ROW     9   COL    15   RATE     750.000    
 BOUNDARY    137   LAYER   1   ROW    10   COL     2   RATE     750.000    
 BOUNDARY    138   LAYER   1   ROW    10   COL     3   RATE     750.000    
 BOUNDARY    139   LAYER   1   ROW    10   COL     4   RATE     750.000    
 BOUNDARY    140   LAYER   1   ROW    10   COL     5   RATE     750.000    
 BOUNDARY    141   LAYER   1   ROW    10   COL     6   RATE     750.000    
 BOUNDARY    142   LAYER   1   ROW    10   COL     7   RATE     750.000    
 BOUNDARY    143   LAYER   1   ROW    10   COL     8   RATE     750.000    
 BOUNDARY    144   LAYER   1   ROW    10   COL     9   RATE     750.000    
 BOUNDARY    145   LAYER   1   ROW    10   COL    10   RATE     750.000    
 BOUNDARY    146   LAYER   1   ROW    10   COL    11   RATE     750.000    
 BOUNDARY    147   LAYER   1   ROW    10   COL    12   RATE     750.000    
 BOUNDARY    148   LAYER   1   ROW    10   COL    13   RATE     750.000    
 BOUNDARY    149   LAYER   1   ROW    10   COL    14   RATE     750.000    
 BOUNDARY    150   LAYER   1   ROW    10   COL    15   RATE     750.000    
 UBDSV4 SAVING ET SEGS          ON UNIT   1017 AT TIME STEP      6, STRESS PERIOD      3

 ET SEGS            PERIOD  3   STEP  6
 BOUNDARY      1   LAYER   1   ROW     1   COL    13   RATE    -72.7845      ET-1
 BOUNDARY      2   LAYER   1   ROW     2   COL    13   RATE    -137.705      ET-2
 BOUNDARY      3   LAYER   1   ROW     3   COL    13   RATE    -190.489      ET-3
 BOUNDARY      4   LAYER   1   ROW     4   COL    13   RATE    -231.868      ET-4
 BOUNDARY      5   LAYER   1   ROW     5   COL    13   RATE    -281.521      ET-5
 BOUNDARY      6   LAYER   1   ROW     6   COL    13   RATE    -280.658      ET-6
 BOUNDARY      7   LAYER   1   ROW     7   COL    13   RATE    -214.183      ET-7
 BOUNDARY      8   LAYER   1   ROW     8   COL    13   RATE    -169.468      ET-8
 BOUNDARY      9   LAYER   1   ROW     9   COL    13   RATE    -112.213      ET-9
 BOUNDARY     10   LAYER   1   ROW    10   COL    13   RATE    -37.6769      ET-10
 BOUNDARY     11   LAYER   1   ROW     1   COL    12   RATE    -113.479      ET-1
 BOUNDARY     12   LAYER   1   ROW     2   COL    12   RATE    -197.901      ET-2
 BOUNDARY     13   LAYER   1   ROW     3   COL    12   RATE    -267.556      ET-3
 BOUNDARY     14   LAYER   1   ROW     4   COL    12   RATE    -331.442      ET-4
 BOUNDARY     15   LAYER   1   ROW     5   COL    12   RATE    -409.251      ET-5
 BOUNDARY     16   LAYER   1   ROW     6   COL    12   RATE    -408.355      ET-6
 BOUNDARY     17   LAYER   1   ROW     7   COL    12   RATE    -306.867      ET-7
 BOUNDARY     18   LAYER   1   ROW     8   COL    12   RATE    -238.131      ET-8
 BOUNDARY     19   LAYER   1   ROW     9   COL    12   RATE    -165.805      ET-9
 BOUNDARY     20   LAYER   1   ROW    10   COL    12   RATE    -61.7811      ET-10
 UBDSV4 SAVING CONSTANT HEADS   ON UNIT   1017 AT TIME STEP      6, STRESS PERIOD      3

 CONSTANT HEADS     PERIOD  3   STEP  6
 BOUNDARY      1   LAYER   1   ROW     1   COL     1   RATE     2626.32      CHD-1
 BOUNDARY      2   LAYER   1   ROW     4   COL     1   RATE     4706.53    
 BOUNDARY      3   LAYER   1   ROW     5   COL     1   RATE     828.122      CHD_GP
 BOUNDARY      4   LAYER   1   ROW     6   COL     1   RATE     4307.95      CHD_GP
 BOUNDARY      5   LAYER   1   ROW    10   COL     1   RATE     1765.81      CHD-10

 HEAD WILL BE SAVED ON UNIT 1018 AT END OF TIME STEP    6, STRESS PERIOD    3
WEL   no.    2 value from time series:  -30000.     for time:  4.200     to  4.400    
WEL   no.    3 value from time series:  -8600.0     for time:  4.200     to  4.400    
RIV   no.    1 value from time series:   103.85     for time:  4.200     to  4.400    
RIV   no.    2 value from time series:   103.85     for time:  4.200     to  4.400    
RIV   no.    3 value from time series:   103.85     for time:  4.200     to  4.400    
RIV   no.    4 value from time series:   103.85     for time:  4.200     to  4.400    
RIV   no.    5 value from time series:   103.85     for time:  4.200     to  4.400    
RIV   no.    6 value from time series:   103.85     for time:  4.200     to  4.400    
RIV   no.    7 value from time series:   103.85     for time:  4.200     to  4.400    
RIV   no.    8 value from time series:   103.85     for time:  4.200     to  4.400    
RIV   no.    9 value from time series:   103.85     for time:  4.200     to  4.400    
RIV   no.   10 value from time series:   103.85     for time:  4.200     to  4.400    
RIV   no.   11 value from time series:   103.85     for time:  4.200     to  4.400    
RIV   no.   12 value from time series:   103.85     for time:  4.200     to  4.400    
RIV   no.   13 value from time series:   103.85     for time:  4.200     to  4.400    
RIV   no.   14 value from time series:   103.85     for time:  4.200     to  4.400    
RIV   no.   15 value from time series:   103.85     for time:  4.200     to  4.400    
RIV   no.   16 value from time series:   103.85     for time:  4.200     to  4.400    
RIV   no.   17 value from time series:   103.85     for time:  4.200     to  4.400    
RIV   no.   18 value from time series:   103.85     for time:  4.200     to  4.400    
RIV   no.   19 value from time series:   103.85     for time:  4.200     to  4.400    
RIV   no.   20 value from time series:   103.85     for time:  4.200     to  4.400    
EVT   no.    1 value from time series:   953.44     for time:  4.200     to  4.400    
EVT   no.    2 value from time series:   1906.9     for time:  4.200     to  4.400    
EVT   no.    3 value from time series:   2860.3     for time:  4.200     to  4.400    
EVT   no.    4 value from time series:   3813.8     for time:  4.200     to  4.400    
EVT   no.   10 value from time series:   476.72     for time:  4.200     to  4.400    
EVT   no.   11 value from time series:   953.44     for time:  4.200     to  4.400    
EVT   no.   12 value from time series:   1906.9     for time:  4.200     to  4.400    
EVT   no.   13 value from time series:   2860.3     for time:  4.200     to  4.400    
EVT   no.   14 value from time series:   3813.8     for time:  4.200     to  4.400    
EVT   no.   20 value from time series:   476.72     for time:  4.200     to  4.400    
WEL   no.    2 value from time series:  -30000.     for time:  4.200     to  4.400    
WEL   no.    3 value from time series:  -8600.0     for time:  4.200     to  4.400    
RIV   no.    1 value from time series:   103.85     for time:  4.200     to  4.400    
RIV   no.    2 value from time series:   103.85     for time:  4.200     to  4.400    
RIV   no.    3 value from time series:   103.85     for time:  4.200     to  4.400    
RIV   no.    4 value from time series:   103.85     for time:  4.200     to  4.400    
RIV   no.    5 value from time series:   103.85     for time:  4.200     to  4.400    
RIV   no.    6 value from time series:   103.85     for time:  4.200     to  4.400    
RIV   no.    7 value from time series:   103.85     for time:  4.200     to  4.400    
RIV   no.    8 value from time series:   103.85     for time:  4.200     to  4.400    
RIV   no.    9 value from time series:   103.85     for time:  4.200     to  4.400    
RIV   no.   10 value from time series:   103.85     for time:  4.200     to  4.400    
RIV   no.   11 value from time series:   103.85     for time:  4.200     to  4.400    
RIV   no.   12 value from time series:   103.85     for time:  4.200     to  4.400    
RIV   no.   13 value from time series:   103.85     for time:  4.200     to  4.400    
RIV   no.   14 value from time series:   103.85     for time:  4.200     to  4.400    
RIV   no.   15 value from time series:   103.85     for time:  4.200     to  4.400    
RIV   no.   16 value from time series:   103.85     for time:  4.200     to  4.400    
RIV   no.   17 value from time series:   103.85     for time:  4.200     to  4.400    
RIV   no.   18 value from time series:   103.85     for time:  4.200     to  4.400    
RIV   no.   19 value from time series:   103.85     for time:  4.200     to  4.400    
RIV   no.   20 value from time series:   103.85     for time:  4.200     to  4.400    
EVT   no.    1 value from time series:   953.44     for time:  4.200     to  4.400    
EVT   no.    2 value from time series:   1906.9     for time:  4.200     to  4.400    
EVT   no.    3 value from time series:   2860.3     for time:  4.200     to  4.400    
EVT   no.    4 value from time series:   3813.8     for time:  4.200     to  4.400    
EVT   no.   10 value from time series:   476.72     for time:  4.200     to  4.400    
EVT   no.   11 value from time series:   953.44     for time:  4.200     to  4.400    
EVT   no.   12 value from time series:   1906.9     for time:  4.200     to  4.400    
EVT   no.   13 value from time series:   2860.3     for time:  4.200     to  4.400    
EVT   no.   14 value from time series:   3813.8     for time:  4.200     to  4.400    
EVT   no.   20 value from time series:   476.72     for time:  4.200     to  4.400    

 OUTPUT CONTROL FOR STRESS PERIOD    3   TIME STEP    7
    SAVE BUDGET
    SAVE HEAD
    SAVE HEAD FOR ALL LAYERS
 UBDSV1 SAVING      STORAGE(SS) ON UNIT   1017 AT TIME STEP      7, STRESS PERIOD      3
 UBDSV1 SAVING      STORAGE(SY) ON UNIT   1017 AT TIME STEP      7, STRESS PERIOD      3
 UBDSV1 SAVING FLOW RIGHT FACE  ON UNIT   1017 AT TIME STEP      7, STRESS PERIOD      3
 UBDSV1 SAVING FLOW FRONT FACE  ON UNIT   1017 AT TIME STEP      7, STRESS PERIOD      3
 UBDSV1 SAVING FLOW LOWER FACE  ON UNIT   1017 AT TIME STEP      7, STRESS PERIOD      3
 UBDSV4 SAVING WELLS NEAR RIVER ON UNIT   1017 AT TIME STEP      7, STRESS PERIOD      3

 WELLS NEAR RIVER   PERIOD  3   STEP  7
 BOUNDARY      1   LAYER   1   ROW     2   COL     3   RATE    -50.0000    
 BOUNDARY      2   LAYER   2   ROW     3   COL     4   RATE    -30000.0      WELL_1
 BOUNDARY      3   LAYER   2   ROW     8   COL     4   RATE    -8600.00      WELL_2
 UBDSV4 SAVING RIVER            ON UNIT   1017 AT TIME STEP      7, STRESS PERIOD      3

 RIVER              PERIOD  3   STEP  7
 BOUNDARY      1   LAYER   1   ROW     1   COL    15   RATE     6871.62    
 BOUNDARY      2   LAYER   1   ROW     2   COL    15   RATE     6889.23      RIV2
 BOUNDARY      3   LAYER   1   ROW     3   COL    15   RATE     6915.62      RIV3
 BOUNDARY      4   LAYER   1   ROW     4   COL    15   RATE     6943.12    
 BOUNDARY      5   LAYER   1   ROW     5   COL    15   RATE     6964.47    
 BOUNDARY      6   LAYER   1   ROW     6   COL    15   RATE     6965.11    
 BOUNDARY      7   LAYER   1   ROW     7   COL    15   RATE     6944.60      RIVX
 BOUNDARY      8   LAYER   1   ROW     8   COL    15   RATE     6914.15      RIVX
 BOUNDARY      9   LAYER   1   ROW     9   COL    15   RATE     6882.30      RIVX
 BOUNDARY     10   LAYER   1   ROW    10   COL    15   RATE     6859.56    
 BOUNDARY     11   LAYER   2   ROW     1   COL    15   RATE     13.0753    
 BOUNDARY     12   LAYER   2   ROW     2   COL    15   RATE     15.3624      RIV2
 BOUNDARY     13   LAYER   2   ROW     3   COL    15   RATE     18.9748      RIV3
 BOUNDARY     14   LAYER   2   ROW     4   COL    15   RATE     22.7130    
 BOUNDARY     15   LAYER   2   ROW     5   COL    15   RATE     25.2941    
 BOUNDARY     16   LAYER   2   ROW     6   COL    15   RATE     25.2848    
 BOUNDARY     17   LAYER   2   ROW     7   COL    15   RATE     22.5880      RIVX
 BOUNDARY     18   LAYER   2   ROW     8   COL    15   RATE     18.3869      RIVX
 BOUNDARY     19   LAYER   2   ROW     9   COL    15   RATE     14.0925      RIVX
 BOUNDARY     20   LAYER   2   ROW    10   COL    15   RATE     11.2530    

 GHB LAKES          PERIOD  3   STEP  7
 BOUNDARY      1   LAYER   1   ROW     3   COL     1   RATE    -7902.39    
 BOUNDARY      2   LAYER   1   ROW     7   COL     1   RATE     4340.99      GHB2_UPPER
 BOUNDARY      3   LAYER   1   ROW     7   COL     1   RATE    -11018.7      GHB2_LOWER
 UBDSV4 SAVING RECHARGE         ON UNIT   1017 AT TIME STEP      7, STRESS PERIOD      3

 RECHARGE           PERIOD  3   STEP  7
 BOUNDARY      2   LAYER   1   ROW     1   COL     2   RATE     750.000    
 BOUNDARY      3   LAYER   1   ROW     1   COL     3   RATE     750.000    
 BOUNDARY      4   LAYER   1   ROW     1   COL     4   RATE     750.000    
 BOUNDARY      5   LAYER   1   ROW     1   COL     5   RATE     750.000    
 BOUNDARY      6   LAYER   1   ROW     1   COL     6   RATE     750.000    
 BOUNDARY      7   LAYER   1   ROW     1   COL     7   RATE     750.000    
 BOUNDARY      8   LAYER   1   ROW     1   COL     8   RATE     750.000    
 BOUNDARY      9   LAYER   1   ROW     1   COL     9   RATE     750.000    
 BOUNDARY     10   LAYER   1   ROW     1   COL    10   RATE     750.000    
 BOUNDARY     11   LAYER   1   ROW     1   COL    11   RATE     750.000    
 BOUNDARY     12   LAYER   1   ROW     1   COL    12   RATE     750.000    
 BOUNDARY     13   LAYER   1   ROW     1   COL    13   RATE     750.000    
 BOUNDARY     14   LAYER   1   ROW     1   COL    14   RATE     750.000    
 BOUNDARY     15   LAYER   1   ROW     1   COL    15   RATE     750.000    
 BOUNDARY     16   LAYER   1   ROW     2   COL     1   RATE     750.000    
 BOUNDARY     17   LAYER   1   ROW     2   COL     2   RATE     750.000    
 BOUNDARY     18   LAYER   1   ROW     2   COL     3   RATE     750.000    
 BOUNDARY     19   LAYER   1   ROW     2   COL     4   RATE     750.000    
 BOUNDARY     20   LAYER   1   ROW     2   COL     5   RATE     750.000    
 BOUNDARY     21   LAYER   1   ROW     2   COL     6   RATE     750.000    
 BOUNDARY     22   LAYER   1   ROW     2   COL     7   RATE     750.000    
 BOUNDARY     23   LAYER   1   ROW     2   COL     8   RATE     750.000    
 BOUNDARY     24   LAYER   1   ROW     2   COL     9   RATE     750.000    
 BOUNDARY     25   LAYER   1   ROW     2   COL    10   RATE     750.000    
 BOUNDARY     26   LAYER   1   ROW     2   COL    11   RATE     750.000    
 BOUNDARY     27   LAYER   1   ROW     2   COL    12   RATE     750.000    
 BOUNDARY     28   LAYER   1   ROW     2   COL    13   RATE     750.000    
 BOUNDARY     29   LAYER   1   ROW     2   COL    14   RATE     750.000    
 BOUNDARY     30   LAYER   1   ROW     2   COL    15   RATE     750.000    
 BOUNDARY     31   LAYER   1   ROW     3   COL     1   RATE     750.000    
 BOUNDARY     32   LAYER   1   ROW     3   COL     2   RATE     750.000    
 BOUNDARY     33   LAYER   1   ROW     3   COL     3   RATE     750.000    
 BOUNDARY     34   LAYER   1   ROW     3   COL     4   RATE     750.000    
 BOUNDARY     35   LAYER   1   ROW     3   COL     5   RATE     750.000    
 BOUNDARY     36   LAYER   1   ROW     3   COL     6   RATE     750.000    
 BOUNDARY     37   LAYER   1   ROW     3   COL     7   RATE     750.000    
 BOUNDARY     38   LAYER   1   ROW     3   COL     8   RATE     750.000    
 BOUNDARY     39   LAYER   1   ROW     3   COL     9   RATE     750.000    
 BOUNDARY     40   LAYER   1   ROW     3   COL    10   RATE     750.000    
 BOUNDARY     41   LAYER   1   ROW     3   COL    11   RATE     750.000    
 BOUNDARY     42   LAYER   1   ROW     3   COL    12   RATE     750.000    
 BOUNDARY     43   LAYER   1   ROW     3   COL    13   RATE     750.000    
 BOUNDARY     44   LAYER   1   ROW     3   COL    14   RATE     750.000    
 BOUNDARY     45   LAYER   1   ROW     3   COL    15   RATE     750.000    
 BOUNDARY     47   LAYER   1   ROW     4   COL     2   RATE     750.000    
 BOUNDARY     48   LAYER   1   ROW     4   COL     3   RATE     750.000    
 BOUNDARY     49   LAYER   1   ROW     4   COL     4   RATE     750.000    
 BOUNDARY     50   LAYER   1   ROW     4   COL     5   RATE     750.000    
 BOUNDARY     51   LAYER   1   ROW     4   COL     6   RATE     750.000    
 BOUNDARY     52   LAYER   1   ROW     4   COL     7   RATE     750.000    
 BOUNDARY     53   LAYER   1   ROW     4   COL     8   RATE     750.000    
 BOUNDARY     54   LAYER   1   ROW     4   COL     9   RATE     750.000    
 BOUNDARY     55   LAYER   1   ROW     4   COL    10   RATE     750.000    
 BOUNDARY     56   LAYER   1   ROW     4   COL    11   RATE     750.000    
 BOUNDARY     57   LAYER   1   ROW     4   COL    12   RATE     750.000    
 BOUNDARY     58   LAYER   1   ROW     4   COL    13   RATE     750.000    
 BOUNDARY     59   LAYER   1   ROW     4   COL    14   RATE     750.000    
 BOUNDARY     60   LAYER   1   ROW     4   COL    15   RATE     750.000    
 BOUNDARY     62   LAYER   1   ROW     5   COL     2   RATE     750.000    
 BOUNDARY     63   LAYER   1   ROW     5   COL     3   RATE     750.000    
 BOUNDARY     64   LAYER   1   ROW     5   COL     4   RATE     750.000    
 BOUNDARY     65   LAYER   1   ROW     5   COL     5   RATE     750.000    
 BOUNDARY     66   LAYER   1   ROW     5   COL     6   RATE     750.000    
 BOUNDARY     67   LAYER   1   ROW     5   COL     7   RATE     750.000    
 BOUNDARY     68   LAYER   1   ROW     5   COL     8   RATE     750.000    
 BOUNDARY     69   LAYER   1   ROW     5   COL     9   RATE     750.000    
 BOUNDARY     70   LAYER   1   ROW     5   COL    10   RATE     750.000    
 BOUNDARY     71   LAYER   1   ROW     5   COL    11   RATE     750.000    
 BOUNDARY     72   LAYER   1   ROW     5   COL    12   RATE     750.000    
 BOUNDARY     73   LAYER   1   ROW     5   COL    13   RATE     750.000    
 BOUNDARY     74   LAYER   1   ROW     5   COL    14   RATE     750.000    
 BOUNDARY     75   LAYER   1   ROW     5   COL    15   RATE     750.000    
 BOUNDARY     77   LAYER   1   ROW     6   COL     2   RATE     750.000    
 BOUNDARY     78   LAYER   1   ROW     6   COL     3   RATE     750.000    
 BOUNDARY     79   LAYER   1   ROW     6   COL     4   RATE     750.000    
 BOUNDARY     80   LAYER   1   ROW     6   COL     5   RATE     750.000    
 BOUNDARY     81   LAYER   1   ROW     6   COL     6   RATE     750.000    
 BOUNDARY     82   LAYER   1   ROW     6   COL     7   RATE     750.000    
 BOUNDARY     83   LAYER   1   ROW     6   COL     8   RATE     750.000    
 BOUNDARY     84   LAYER   1   ROW     6   COL     9   RATE     750.000    
 BOUNDARY     85   LAYER   1   ROW     6   COL    10   RATE     750.000    
 BOUNDARY     86   LAYER   1   ROW     6   COL    11   RATE     750.000    
 BOUNDARY     87   LAYER   1   ROW     6   COL    12   RATE     750.000    
 BOUNDARY     88   LAYER   1   ROW     6   COL    13   RATE     750.000    
 BOUNDARY     89   LAYER   1   ROW     6   COL    14   RATE     750.000    
 BOUNDARY     90   LAYER   1   ROW     6   COL    15   RATE     750.000    
 BOUNDARY     91   LAYER   1   ROW     7   COL     1   RATE     750.000    
 BOUNDARY     92   LAYER   1   ROW     7   COL     2   RATE     750.000    
 BOUNDARY     93   LAYER   1   ROW     7   COL     3   RATE     750.000    
 BOUNDARY     94   LAYER   1   ROW     7   COL     4   RATE     750.000    
 BOUNDARY     95   LAYER   1   ROW     7   COL     5   RATE     750.000    
 BOUNDARY     96   LAYER   1   ROW     7   COL     6   RATE     750.000    
 BOUNDARY     97   LAYER   1   ROW     7   COL     7   RATE     750.000    
 BOUNDARY     98   LAYER   1   ROW     7   COL     8   RATE     750.000    
 BOUNDARY     99   LAYER   1   ROW     7   COL     9   RATE     750.000    
 BOUNDARY    100   LAYER   1   ROW     7   COL    10   RATE     750.000    
 BOUNDARY    101   LAYER   1   ROW     7   COL    11   RATE     750.000    
 BOUNDARY    102   LAYER   1   ROW     7   COL    12   RATE     750.000    
 BOUNDARY    103   LAYER   1   ROW     7   COL    13   RATE     750.000    
 BOUNDARY    104   LAYER   1   ROW     7   COL    14   RATE     750.000    
 BOUNDARY    105   LAYER   1   ROW     7   COL    15   RATE     750.000    
 BOUNDARY    106   LAYER   1   ROW     8   COL     1   RATE     750.000    
 BOUNDARY    107   LAYER   1   ROW     8   COL     2   RATE     750.000    
 BOUNDARY    108   LAYER   1   ROW     8   COL     3   RATE     750.000    
 BOUNDARY    109   LAYER   1   ROW     8   COL     4   RATE     750.000    
 BOUNDARY    110   LAYER   1   ROW     8   COL     5   RATE     750.000    
 BOUNDARY    111   LAYER   1   ROW     8   COL     6   RATE     750.000    
 BOUNDARY    112   LAYER   1   ROW     8   COL     7   RATE     750.000    
 BOUNDARY    113   LAYER   1   ROW     8   COL     8   RATE     750.000    
 BOUNDARY    114   LAYER   1   ROW     8   COL     9   RATE     750.000    
 BOUNDARY    115   LAYER   1   ROW     8   COL    10   RATE     750.000    
 BOUNDARY    116   LAYER   1   ROW     8   COL    11   RATE     750.000    
 BOUNDARY    117   LAYER   1   ROW     8   COL    12   RATE     750.000    
 BOUNDARY    118   LAYER   1   ROW     8   COL    13   RATE     750.000    
 BOUNDARY    119   LAYER   1   ROW     8   COL    14   RATE     750.000    
 BOUNDARY    120   LAYER   1   ROW     8   COL    15   RATE     750.000    
 BOUNDARY    121   LAYER   1   ROW     9   COL     1   RATE     750.000    
 BOUNDARY    122   LAYER   1   ROW     9   COL     2   RATE     750.000    
 BOUNDARY    123   LAYER   1   ROW     9   COL     3   RATE     750.000    
 BOUNDARY    124   LAYER   1   ROW     9   COL     4   RATE     750.000    
 BOUNDARY    125   LAYER   1   ROW     9   COL     5   RATE     750.000    
 BOUNDARY    126   LAYER   1   ROW     9   COL     6   RATE     750.000    
 BOUNDARY    127   LAYER   1   ROW     9   COL     7   RATE     750.000    
 BOUNDARY    128   LAYER   1   ROW     9   COL     8   RATE     750.000    
 BOUNDARY    129   LAYER   1   ROW     9   COL     9   RATE     750.000    
 BOUNDARY    130   LAYER   1   ROW     9   COL    10   RATE     750.000    
 BOUNDARY    131   LAYER   1   ROW     9   COL    11   RATE     750.000    
 BOUNDARY    132   LAYER   1   ROW     9   COL    12   RATE     750.000    
 BOUNDARY    133   LAYER   1   ROW     9   COL    13   RATE     750.000    
 BOUNDARY    134   LAYER   1   ROW     9   COL    14   RATE     750.000    
 BOUNDARY    135   LAYER   1   ROW     9   COL    15   RATE     750.000    
 BOUNDARY    137   LAYER   1   ROW    10   COL     2   RATE     750.000    
 BOUNDARY    138   LAYER   1   ROW    10   COL     3   RATE     750.000    
 BOUNDARY    139   LAYER   1   ROW    10   COL     4   RATE     750.000    
 BOUNDARY    140   LAYER   1   ROW    10   COL     5   RATE     750.000    
 BOUNDARY    141   LAYER   1   ROW    10   COL     6   RATE     750.000    
 BOUNDARY    142   LAYER   1   ROW    10   COL     7   RATE     750.000    
 BOUNDARY    143   LAYER   1   ROW    10   COL     8   RATE     750.000    
 BOUNDARY    144   LAYER   1   ROW    10   COL     9   RATE     750.000    
 BOUNDARY    145   LAYER   1   ROW    10   COL    10   RATE     750.000    
 BOUNDARY    146   LAYER   1   ROW    10   COL    11   RATE     750.000    
 BOUNDARY    147   LAYER   1   ROW    10   COL    12   RATE     750.000    
 BOUNDARY    148   LAYER   1   ROW    10   COL    13   RATE     750.000    
 BOUNDARY    149   LAYER   1   ROW    10   COL    14   RATE     750.000    
 BOUNDARY    150   LAYER   1   ROW    10   COL    15   RATE     750.000    
 UBDSV4 SAVING ET SEGS          ON UNIT   1017 AT TIME STEP      7, STRESS PERIOD      3

 ET SEGS            PERIOD  3   STEP  7
 BOUNDARY      1   LAYER   1   ROW     1   COL    13   RATE    -74.2017      ET-1
 BOUNDARY      2   LAYER   1   ROW     2   COL    13   RATE    -140.394      ET-2
 BOUNDARY      3   LAYER   1   ROW     3   COL    13   RATE    -194.227      ET-3
 BOUNDARY      4   LAYER   1   ROW     4   COL    13   RATE    -236.450      ET-4
 BOUNDARY      5   LAYER   1   ROW     5   COL    13   RATE    -282.080      ET-5
 BOUNDARY      6   LAYER   1   ROW     6   COL    13   RATE    -281.217      ET-6
 BOUNDARY      7   LAYER   1   ROW     7   COL    13   RATE    -214.576      ET-7
 BOUNDARY      8   LAYER   1   ROW     8   COL    13   RATE    -169.750      ET-8
 BOUNDARY      9   LAYER   1   ROW     9   COL    13   RATE    -112.382      ET-9
 BOUNDARY     10   LAYER   1   ROW    10   COL    13   RATE    -38.4091      ET-10
 BOUNDARY     11   LAYER   1   ROW     1   COL    12   RATE    -115.866      ET-1
 BOUNDARY     12   LAYER   1   ROW     2   COL    12   RATE    -202.133      ET-2
 BOUNDARY     13   LAYER   1   ROW     3   COL    12   RATE    -272.673      ET-3
 BOUNDARY     14   LAYER   1   ROW     4   COL    12   RATE    -337.802      ET-4
 BOUNDARY     15   LAYER   1   ROW     5   COL    12   RATE    -409.803      ET-5
 BOUNDARY     16   LAYER   1   ROW     6   COL    12   RATE    -408.908      ET-6
 BOUNDARY     17   LAYER   1   ROW     7   COL    12   RATE    -307.256      ET-7
 BOUNDARY     18   LAYER   1   ROW     8   COL    12   RATE    -238.409      ET-8
 BOUNDARY     19   LAYER   1   ROW     9   COL    12   RATE    -166.357      ET-9
 BOUNDARY     20   LAYER   1   ROW    10   COL    12   RATE    -63.0686      ET-10
 UBDSV4 SAVING CONSTANT HEADS   ON UNIT   1017 AT TIME STEP      7, STRESS PERIOD      3

 CONSTANT HEADS     PERIOD  3   STEP  7
 BOUNDARY      1   LAYER   1   ROW     1   COL     1   RATE     2626.09      CHD-1
 BOUNDARY      2   LAYER   1   ROW     4   COL     1   RATE     4707.37    
 BOUNDARY      3   LAYER   1   ROW     5   COL     1   RATE     828.620      CHD_GP
 BOUNDARY      4   LAYER   1   ROW     6   COL     1   RATE     4306.96      CHD_GP
 BOUNDARY      5   LAYER   1   ROW    10   COL     1   RATE     1763.67      CHD-10

 HEAD WILL BE SAVED ON UNIT 1018 AT END OF TIME STEP    7, STRESS PERIOD    3
WEL   no.    2 value from time series:  -30000.     for time:  4.400     to  4.600    
WEL   no.    3 value from time series:  -9000.0     for time:  4.400     to  4.600    
RIV   no.    1 value from time series:   103.75     for time:  4.400     to  4.600    
RIV   no.    2 value from time series:   103.75     for time:  4.400     to  4.600    
RIV   no.    3 value from time series:   103.75     for time:  4.400     to  4.600    
RIV   no.    4 value from time series:   103.75     for time:  4.400     to  4.600    
RIV   no.    5 value from time series:   103.75     for time:  4.400     to  4.600    
RIV   no.    6 value from time series:   103.75     for time:  4.400     to  4.600    
RIV   no.    7 value from time series:   103.75     for time:  4.400     to  4.600    
RIV   no.    8 value from time series:   103.75     for time:  4.400     to  4.600    
RIV   no.    9 value from time series:   103.75     for time:  4.400     to  4.600    
RIV   no.   10 value from time series:   103.75     for time:  4.400     to  4.600    
RIV   no.   11 value from time series:   103.75     for time:  4.400     to  4.600    
RIV   no.   12 value from time series:   103.75     for time:  4.400     to  4.600    
RIV   no.   13 value from time series:   103.75     for time:  4.400     to  4.600    
RIV   no.   14 value from time series:   103.75     for time:  4.400     to  4.600    
RIV   no.   15 value from time series:   103.75     for time:  4.400     to  4.600    
RIV   no.   16 value from time series:   103.75     for time:  4.400     to  4.600    
RIV   no.   17 value from time series:   103.75     for time:  4.400     to  4.600    
RIV   no.   18 value from time series:   103.75     for time:  4.400     to  4.600    
RIV   no.   19 value from time series:   103.75     for time:  4.400     to  4.600    
RIV   no.   20 value from time series:   103.75     for time:  4.400     to  4.600    
EVT   no.    1 value from time series:   970.31     for time:  4.400     to  4.600    
EVT   no.    2 value from time series:   1940.6     for time:  4.400     to  4.600    
EVT   no.    3 value from time series:   2910.9     for time:  4.400     to  4.600    
EVT   no.    4 value from time series:   3881.2     for time:  4.400     to  4.600    
EVT   no.   10 value from time series:   485.16     for time:  4.400     to  4.600    
EVT   no.   11 value from time series:   970.31     for time:  4.400     to  4.600    
EVT   no.   12 value from time series:   1940.6     for time:  4.400     to  4.600    
EVT   no.   13 value from time series:   2910.9     for time:  4.400     to  4.600    
EVT   no.   14 value from time series:   3881.2     for time:  4.400     to  4.600    
EVT   no.   20 value from time series:   485.16     for time:  4.400     to  4.600    
WEL   no.    2 value from time series:  -30000.     for time:  4.400     to  4.600    
WEL   no.    3 value from time series:  -9000.0     for time:  4.400     to  4.600    
RIV   no.    1 value from time series:   103.75     for time:  4.400     to  4.600    
RIV   no.    2 value from time series:   103.75     for time:  4.400     to  4.600    
RIV   no.    3 value from time series:   103.75     for time:  4.400     to  4.600    
RIV   no.    4 value from time series:   103.75     for time:  4.400     to  4.600    
RIV   no.    5 value from time series:   103.75     for time:  4.400     to  4.600    
RIV   no.    6 value from time series:   103.75     for time:  4.400     to  4.600    
RIV   no.    7 value from time series:   103.75     for time:  4.400     to  4.600    
RIV   no.    8 value from time series:   103.75     for time:  4.400     to  4.600    
RIV   no.    9 value from time series:   103.75     for time:  4.400     to  4.600    
RIV   no.   10 value from time series:   103.75     for time:  4.400     to  4.600    
RIV   no.   11 value from time series:   103.75     for time:  4.400     to  4.600    
RIV   no.   12 value from time series:   103.75     for time:  4.400     to  4.600    
RIV   no.   13 value from time series:   103.75     for time:  4.400     to  4.600    
RIV   no.   14 value from time series:   103.75     for time:  4.400     to  4.600    
RIV   no.   15 value from time series:   103.75     for time:  4.400     to  4.600    
RIV   no.   16 value from time series:   103.75     for time:  4.400     to  4.600    
RIV   no.   17 value from time series:   103.75     for time:  4.400     to  4.600    
RIV   no.   18 value from time series:   103.75     for time:  4.400     to  4.600    
RIV   no.   19 value from time series:   103.75     for time:  4.400     to  4.600    
RIV   no.   20 value from time series:   103.75     for time:  4.400     to  4.600    
EVT   no.    1 value from time series:   970.31     for time:  4.400     to  4.600    
EVT   no.    2 value from time series:   1940.6     for time:  4.400     to  4.600    
EVT   no.    3 value from time series:   2910.9     for time:  4.400     to  4.600    
EVT   no.    4 value from time series:   3881.2     for time:  4.400     to  4.600    
EVT   no.   10 value from time series:   485.16     for time:  4.400     to  4.600    
EVT   no.   11 value from time series:   970.31     for time:  4.400     to  4.600    
EVT   no.   12 value from time series:   1940.6     for time:  4.400     to  4.600    
EVT   no.   13 value from time series:   2910.9     for time:  4.400     to  4.600    
EVT   no.   14 value from time series:   3881.2     for time:  4.400     to  4.600    
EVT   no.   20 value from time series:   485.16     for time:  4.400     to  4.600    

 OUTPUT CONTROL FOR STRESS PERIOD    3   TIME STEP    8
    SAVE BUDGET
    SAVE HEAD
    SAVE HEAD FOR ALL LAYERS
 UBDSV1 SAVING      STORAGE(SS) ON UNIT   1017 AT TIME STEP      8, STRESS PERIOD      3
 UBDSV1 SAVING      STORAGE(SY) ON UNIT   1017 AT TIME STEP      8, STRESS PERIOD      3
 UBDSV1 SAVING FLOW RIGHT FACE  ON UNIT   1017 AT TIME STEP      8, STRESS PERIOD      3
 UBDSV1 SAVING FLOW FRONT FACE  ON UNIT   1017 AT TIME STEP      8, STRESS PERIOD      3
 UBDSV1 SAVING FLOW LOWER FACE  ON UNIT   1017 AT TIME STEP      8, STRESS PERIOD      3
 UBDSV4 SAVING WELLS NEAR RIVER ON UNIT   1017 AT TIME STEP      8, STRESS PERIOD      3

 WELLS NEAR RIVER   PERIOD  3   STEP  8
 BOUNDARY      1   LAYER   1   ROW     2   COL     3   RATE    -50.0000    
 BOUNDARY      2   LAYER   2   ROW     3   COL     4   RATE    -30000.0      WELL_1
 BOUNDARY      3   LAYER   2   ROW     8   COL     4   RATE    -9000.00      WELL_2
 UBDSV4 SAVING RIVER            ON UNIT   1017 AT TIME STEP      8, STRESS PERIOD      3

 RIVER              PERIOD  3   STEP  8
 BOUNDARY      1   LAYER   1   ROW     1   COL    15   RATE     5379.43    
 BOUNDARY      2   LAYER   1   ROW     2   COL    15   RATE     5397.00      RIV2
 BOUNDARY      3   LAYER   1   ROW     3   COL    15   RATE     5423.35      RIV3
 BOUNDARY      4   LAYER   1   ROW     4   COL    15   RATE     5450.80    
 BOUNDARY      5   LAYER   1   ROW     5   COL    15   RATE     5472.12    
 BOUNDARY      6   LAYER   1   ROW     6   COL    15   RATE     5472.76    
 BOUNDARY      7   LAYER   1   ROW     7   COL    15   RATE     5452.29      RIVX
 BOUNDARY      8   LAYER   1   ROW     8   COL    15   RATE     5421.89      RIVX
 BOUNDARY      9   LAYER   1   ROW     9   COL    15   RATE     5390.10      RIVX
 BOUNDARY     10   LAYER   1   ROW    10   COL    15   RATE     5367.39    
 BOUNDARY     11   LAYER   2   ROW     1   COL    15   RATE     3.92353    
 BOUNDARY     12   LAYER   2   ROW     2   COL    15   RATE     6.18544      RIV2
 BOUNDARY     13   LAYER   2   ROW     3   COL    15   RATE     9.75686      RIV3
 BOUNDARY     14   LAYER   2   ROW     4   COL    15   RATE     13.4533    
 BOUNDARY     15   LAYER   2   ROW     5   COL    15   RATE     16.0083    
 BOUNDARY     16   LAYER   2   ROW     6   COL    15   RATE     16.0006    
 BOUNDARY     17   LAYER   2   ROW     7   COL    15   RATE     13.3337      RIVX
 BOUNDARY     18   LAYER   2   ROW     8   COL    15   RATE     9.18020      RIVX
 BOUNDARY     19   LAYER   2   ROW     9   COL    15   RATE     4.93354      RIVX
 BOUNDARY     20   LAYER   2   ROW    10   COL    15   RATE     2.12390    

 GHB LAKES          PERIOD  3   STEP  8
 BOUNDARY      1   LAYER   1   ROW     3   COL     1   RATE    -7908.40    
 BOUNDARY      2   LAYER   1   ROW     7   COL     1   RATE     4335.66      GHB2_UPPER
 BOUNDARY      3   LAYER   1   ROW     7   COL     1   RATE    -11020.6      GHB2_LOWER
 UBDSV4 SAVING RECHARGE         ON UNIT   1017 AT TIME STEP      8, STRESS PERIOD      3

 RECHARGE           PERIOD  3   STEP  8
 BOUNDARY      2   LAYER   1   ROW     1   COL     2   RATE     750.000    
 BOUNDARY      3   LAYER   1   ROW     1   COL     3   RATE     750.000    
 BOUNDARY      4   LAYER   1   ROW     1   COL     4   RATE     750.000    
 BOUNDARY      5   LAYER   1   ROW     1   COL     5   RATE     750.000    
 BOUNDARY      6   LAYER   1   ROW     1   COL     6   RATE     750.000    
 BOUNDARY      7   LAYER   1   ROW     1   COL     7   RATE     750.000    
 BOUNDARY      8   LAYER   1   ROW     1   COL     8   RATE     750.000    
 BOUNDARY      9   LAYER   1   ROW     1   COL     9   RATE     750.000    
 BOUNDARY     10   LAYER   1   ROW     1   COL    10   RATE     750.000    
 BOUNDARY     11   LAYER   1   ROW     1   COL    11   RATE     750.000    
 BOUNDARY     12   LAYER   1   ROW     1   COL    12   RATE     750.000    
 BOUNDARY     13   LAYER   1   ROW     1   COL    13   RATE     750.000    
 BOUNDARY     14   LAYER   1   ROW     1   COL    14   RATE     750.000    
 BOUNDARY     15   LAYER   1   ROW     1   COL    15   RATE     750.000    
 BOUNDARY     16   LAYER   1   ROW     2   COL     1   RATE     750.000    
 BOUNDARY     17   LAYER   1   ROW     2   COL     2   RATE     750.000    
 BOUNDARY     18   LAYER   1   ROW     2   COL     3   RATE     750.000    
 BOUNDARY     19   LAYER   1   ROW     2   COL     4   RATE     750.000    
 BOUNDARY     20   LAYER   1   ROW     2   COL     5   RATE     750.000    
 BOUNDARY     21   LAYER   1   ROW     2   COL     6   RATE     750.000    
 BOUNDARY     22   LAYER   1   ROW     2   COL     7   RATE     750.000    
 BOUNDARY     23   LAYER   1   ROW     2   COL     8   RATE     750.000    
 BOUNDARY     24   LAYER   1   ROW     2   COL     9   RATE     750.000    
 BOUNDARY     25   LAYER   1   ROW     2   COL    10   RATE     750.000    
 BOUNDARY     26   LAYER   1   ROW     2   COL    11   RATE     750.000    
 BOUNDARY     27   LAYER   1   ROW     2   COL    12   RATE     750.000    
 BOUNDARY     28   LAYER   1   ROW     2   COL    13   RATE     750.000    
 BOUNDARY     29   LAYER   1   ROW     2   COL    14   RATE     750.000    
 BOUNDARY     30   LAYER   1   ROW     2   COL    15   RATE     750.000    
 BOUNDARY     31   LAYER   1   ROW     3   COL     1   RATE     750.000    
 BOUNDARY     32   LAYER   1   ROW     3   COL     2   RATE     750.000    
 BOUNDARY     33   LAYER   1   ROW     3   COL     3   RATE     750.000    
 BOUNDARY     34   LAYER   1   ROW     3   COL     4   RATE     750.000    
 BOUNDARY     35   LAYER   1   ROW     3   COL     5   RATE     750.000    
 BOUNDARY     36   LAYER   1   ROW     3   COL     6   RATE     750.000    
 BOUNDARY     37   LAYER   1   ROW     3   COL     7   RATE     750.000    
 BOUNDARY     38   LAYER   1   ROW     3   COL     8   RATE     750.000    
 BOUNDARY     39   LAYER   1   ROW     3   COL     9   RATE     750.000    
 BOUNDARY     40   LAYER   1   ROW     3   COL    10   RATE     750.000    
 BOUNDARY     41   LAYER   1   ROW     3   COL    11   RATE     750.000    
 BOUNDARY     42   LAYER   1   ROW     3   COL    12   RATE     750.000    
 BOUNDARY     43   LAYER   1   ROW     3   COL    13   RATE     750.000    
 BOUNDARY     44   LAYER   1   ROW     3   COL    14   RATE     750.000    
 BOUNDARY     45   LAYER   1   ROW     3   COL    15   RATE     750.000    
 BOUNDARY     47   LAYER   1   ROW     4   COL     2   RATE     750.000    
 BOUNDARY     48   LAYER   1   ROW     4   COL     3   RATE     750.000    
 BOUNDARY     49   LAYER   1   ROW     4   COL     4   RATE     750.000    
 BOUNDARY     50   LAYER   1   ROW     4   COL     5   RATE     750.000    
 BOUNDARY     51   LAYER   1   ROW     4   COL     6   RATE     750.000    
 BOUNDARY     52   LAYER   1   ROW     4   COL     7   RATE     750.000    
 BOUNDARY     53   LAYER   1   ROW     4   COL     8   RATE     750.000    
 BOUNDARY     54   LAYER   1   ROW     4   COL     9   RATE     750.000    
 BOUNDARY     55   LAYER   1   ROW     4   COL    10   RATE     750.000    
 BOUNDARY     56   LAYER   1   ROW     4   COL    11   RATE     750.000    
 BOUNDARY     57   LAYER   1   ROW     4   COL    12   RATE     750.000    
 BOUNDARY     58   LAYER   1   ROW     4   COL    13   RATE     750.000    
 BOUNDARY     59   LAYER   1   ROW     4   COL    14   RATE     750.000    
 BOUNDARY     60   LAYER   1   ROW     4   COL    15   RATE     750.000    
 BOUNDARY     62   LAYER   1   ROW     5   COL     2   RATE     750.000    
 BOUNDARY     63   LAYER   1   ROW     5   COL     3   RATE     750.000    
 BOUNDARY     64   LAYER   1   ROW     5   COL     4   RATE     750.000    
 BOUNDARY     65   LAYER   1   ROW     5   COL     5   RATE     750.000    
 BOUNDARY     66   LAYER   1   ROW     5   COL     6   RATE     750.000    
 BOUNDARY     67   LAYER   1   ROW     5   COL     7   RATE     750.000    
 BOUNDARY     68   LAYER   1   ROW     5   COL     8   RATE     750.000    
 BOUNDARY     69   LAYER   1   ROW     5   COL     9   RATE     750.000    
 BOUNDARY     70   LAYER   1   ROW     5   COL    10   RATE     750.000    
 BOUNDARY     71   LAYER   1   ROW     5   COL    11   RATE     750.000    
 BOUNDARY     72   LAYER   1   ROW     5   COL    12   RATE     750.000    
 BOUNDARY     73   LAYER   1   ROW     5   COL    13   RATE     750.000    
 BOUNDARY     74   LAYER   1   ROW     5   COL    14   RATE     750.000    
 BOUNDARY     75   LAYER   1   ROW     5   COL    15   RATE     750.000    
 BOUNDARY     77   LAYER   1   ROW     6   COL     2   RATE     750.000    
 BOUNDARY     78   LAYER   1   ROW     6   COL     3   RATE     750.000    
 BOUNDARY     79   LAYER   1   ROW     6   COL     4   RATE     750.000    
 BOUNDARY     80   LAYER   1   ROW     6   COL     5   RATE     750.000    
 BOUNDARY     81   LAYER   1   ROW     6   COL     6   RATE     750.000    
 BOUNDARY     82   LAYER   1   ROW     6   COL     7   RATE     750.000    
 BOUNDARY     83   LAYER   1   ROW     6   COL     8   RATE     750.000    
 BOUNDARY     84   LAYER   1   ROW     6   COL     9   RATE     750.000    
 BOUNDARY     85   LAYER   1   ROW     6   COL    10   RATE     750.000    
 BOUNDARY     86   LAYER   1   ROW     6   COL    11   RATE     750.000    
 BOUNDARY     87   LAYER   1   ROW     6   COL    12   RATE     750.000    
 BOUNDARY     88   LAYER   1   ROW     6   COL    13   RATE     750.000    
 BOUNDARY     89   LAYER   1   ROW     6   COL    14   RATE     750.000    
 BOUNDARY     90   LAYER   1   ROW     6   COL    15   RATE     750.000    
 BOUNDARY     91   LAYER   1   ROW     7   COL     1   RATE     750.000    
 BOUNDARY     92   LAYER   1   ROW     7   COL     2   RATE     750.000    
 BOUNDARY     93   LAYER   1   ROW     7   COL     3   RATE     750.000    
 BOUNDARY     94   LAYER   1   ROW     7   COL     4   RATE     750.000    
 BOUNDARY     95   LAYER   1   ROW     7   COL     5   RATE     750.000    
 BOUNDARY     96   LAYER   1   ROW     7   COL     6   RATE     750.000    
 BOUNDARY     97   LAYER   1   ROW     7   COL     7   RATE     750.000    
 BOUNDARY     98   LAYER   1   ROW     7   COL     8   RATE     750.000    
 BOUNDARY     99   LAYER   1   ROW     7   COL     9   RATE     750.000    
 BOUNDARY    100   LAYER   1   ROW     7   COL    10   RATE     750.000    
 BOUNDARY    101   LAYER   1   ROW     7   COL    11   RATE     750.000    
 BOUNDARY    102   LAYER   1   ROW     7   COL    12   RATE     750.000    
 BOUNDARY    103   LAYER   1   ROW     7   COL    13   RATE     750.000    
 BOUNDARY    104   LAYER   1   ROW     7   COL    14   RATE     750.000    
 BOUNDARY    105   LAYER   1   ROW     7   COL    15   RATE     750.000    
 BOUNDARY    106   LAYER   1   ROW     8   COL     1   RATE     750.000    
 BOUNDARY    107   LAYER   1   ROW     8   COL     2   RATE     750.000    
 BOUNDARY    108   LAYER   1   ROW     8   COL     3   RATE     750.000    
 BOUNDARY    109   LAYER   1   ROW     8   COL     4   RATE     750.000    
 BOUNDARY    110   LAYER   1   ROW     8   COL     5   RATE     750.000    
 BOUNDARY    111   LAYER   1   ROW     8   COL     6   RATE     750.000    
 BOUNDARY    112   LAYER   1   ROW     8   COL     7   RATE     750.000    
 BOUNDARY    113   LAYER   1   ROW     8   COL     8   RATE     750.000    
 BOUNDARY    114   LAYER   1   ROW     8   COL     9   RATE     750.000    
 BOUNDARY    115   LAYER   1   ROW     8   COL    10   RATE     750.000    
 BOUNDARY    116   LAYER   1   ROW     8   COL    11   RATE     750.000    
 BOUNDARY    117   LAYER   1   ROW     8   COL    12   RATE     750.000    
 BOUNDARY    118   LAYER   1   ROW     8   COL    13   RATE     750.000    
 BOUNDARY    119   LAYER   1   ROW     8   COL    14   RATE     750.000    
 BOUNDARY    120   LAYER   1   ROW     8   COL    15   RATE     750.000    
 BOUNDARY    121   LAYER   1   ROW     9   COL     1   RATE     750.000    
 BOUNDARY    122   LAYER   1   ROW     9   COL     2   RATE     750.000    
 BOUNDARY    123   LAYER   1   ROW     9   COL     3   RATE     750.000    
 BOUNDARY    124   LAYER   1   ROW     9   COL     4   RATE     750.000    
 BOUNDARY    125   LAYER   1   ROW     9   COL     5   RATE     750.000    
 BOUNDARY    126   LAYER   1   ROW     9   COL     6   RATE     750.000    
 BOUNDARY    127   LAYER   1   ROW     9   COL     7   RATE     750.000    
 BOUNDARY    128   LAYER   1   ROW     9   COL     8   RATE     750.000    
 BOUNDARY    129   LAYER   1   ROW     9   COL     9   RATE     750.000    
 BOUNDARY    130   LAYER   1   ROW     9   COL    10   RATE     750.000    
 BOUNDARY    131   LAYER   1   ROW     9   COL    11   RATE     750.000    
 BOUNDARY    132   LAYER   1   ROW     9   COL    12   RATE     750.000    
 BOUNDARY    133   LAYER   1   ROW     9   COL    13   RATE     750.000    
 BOUNDARY    134   LAYER   1   ROW     9   COL    14   RATE     750.000    
 BOUNDARY    135   LAYER   1   ROW     9   COL    15   RATE     750.000    
 BOUNDARY    137   LAYER   1   ROW    10   COL     2   RATE     750.000    
 BOUNDARY    138   LAYER   1   ROW    10   COL     3   RATE     750.000    
 BOUNDARY    139   LAYER   1   ROW    10   COL     4   RATE     750.000    
 BOUNDARY    140   LAYER   1   ROW    10   COL     5   RATE     750.000    
 BOUNDARY    141   LAYER   1   ROW    10   COL     6   RATE     750.000    
 BOUNDARY    142   LAYER   1   ROW    10   COL     7   RATE     750.000    
 BOUNDARY    143   LAYER   1   ROW    10   COL     8   RATE     750.000    
 BOUNDARY    144   LAYER   1   ROW    10   COL     9   RATE     750.000    
 BOUNDARY    145   LAYER   1   ROW    10   COL    10   RATE     750.000    
 BOUNDARY    146   LAYER   1   ROW    10   COL    11   RATE     750.000    
 BOUNDARY    147   LAYER   1   ROW    10   COL    12   RATE     750.000    
 BOUNDARY    148   LAYER   1   ROW    10   COL    13   RATE     750.000    
 BOUNDARY    149   LAYER   1   ROW    10   COL    14   RATE     750.000    
 BOUNDARY    150   LAYER   1   ROW    10   COL    15   RATE     750.000    
 UBDSV4 SAVING ET SEGS          ON UNIT   1017 AT TIME STEP      8, STRESS PERIOD      3

 ET SEGS            PERIOD  3   STEP  8
 BOUNDARY      1   LAYER   1   ROW     1   COL    13   RATE    -75.6225      ET-1
 BOUNDARY      2   LAYER   1   ROW     2   COL    13   RATE    -143.089      ET-2
 BOUNDARY      3   LAYER   1   ROW     3   COL    13   RATE    -197.976      ET-3
 BOUNDARY      4   LAYER   1   ROW     4   COL    13   RATE    -241.043      ET-4
 BOUNDARY      5   LAYER   1   ROW     5   COL    13   RATE    -282.639      ET-5
 BOUNDARY      6   LAYER   1   ROW     6   COL    13   RATE    -281.777      ET-6
 BOUNDARY      7   LAYER   1   ROW     7   COL    13   RATE    -214.969      ET-7
 BOUNDARY      8   LAYER   1   ROW     8   COL    13   RATE    -170.031      ET-8
 BOUNDARY      9   LAYER   1   ROW     9   COL    13   RATE    -112.551      ET-9
 BOUNDARY     10   LAYER   1   ROW    10   COL    13   RATE    -39.1433      ET-10
 BOUNDARY     11   LAYER   1   ROW     1   COL    12   RATE    -118.265      ET-1
 BOUNDARY     12   LAYER   1   ROW     2   COL    12   RATE    -206.384      ET-2
 BOUNDARY     13   LAYER   1   ROW     3   COL    12   RATE    -277.799      ET-3
 BOUNDARY     14   LAYER   1   ROW     4   COL    12   RATE    -344.171      ET-4
 BOUNDARY     15   LAYER   1   ROW     5   COL    12   RATE    -410.355      ET-5
 BOUNDARY     16   LAYER   1   ROW     6   COL    12   RATE    -409.460      ET-6
 BOUNDARY     17   LAYER   1   ROW     7   COL    12   RATE    -307.643      ET-7
 BOUNDARY     18   LAYER   1   ROW     8   COL    12   RATE    -238.686      ET-8
 BOUNDARY     19   LAYER   1   ROW     9   COL    12   RATE    -166.909      ET-9
 BOUNDARY     20   LAYER   1   ROW    10   COL    12   RATE    -64.3620      ET-10
 UBDSV4 SAVING CONSTANT HEADS   ON UNIT   1017 AT TIME STEP      8, STRESS PERIOD      3

 CONSTANT HEADS     PERIOD  3   STEP  8
 BOUNDARY      1   LAYER   1   ROW     1   COL     1   RATE     2625.97      CHD-1
 BOUNDARY      2   LAYER   1   ROW     4   COL     1   RATE     4708.24    
 BOUNDARY      3   LAYER   1   ROW     5   COL     1   RATE     829.198      CHD_GP
 BOUNDARY      4   LAYER   1   ROW     6   COL     1   RATE     4306.10      CHD_GP
 BOUNDARY      5   LAYER   1   ROW    10   COL     1   RATE     1761.62      CHD-10

 HEAD WILL BE SAVED ON UNIT 1018 AT END OF TIME STEP    8, STRESS PERIOD    3
WEL   no.    2 value from time series:  -30000.     for time:  4.600     to  4.800    
WEL   no.    3 value from time series:  -9400.0     for time:  4.600     to  4.800    
RIV   no.    1 value from time series:   103.65     for time:  4.600     to  4.800    
RIV   no.    2 value from time series:   103.65     for time:  4.600     to  4.800    
RIV   no.    3 value from time series:   103.65     for time:  4.600     to  4.800    
RIV   no.    4 value from time series:   103.65     for time:  4.600     to  4.800    
RIV   no.    5 value from time series:   103.65     for time:  4.600     to  4.800    
RIV   no.    6 value from time series:   103.65     for time:  4.600     to  4.800    
RIV   no.    7 value from time series:   103.65     for time:  4.600     to  4.800    
RIV   no.    8 value from time series:   103.65     for time:  4.600     to  4.800    
RIV   no.    9 value from time series:   103.65     for time:  4.600     to  4.800    
RIV   no.   10 value from time series:   103.65     for time:  4.600     to  4.800    
RIV   no.   11 value from time series:   103.65     for time:  4.600     to  4.800    
RIV   no.   12 value from time series:   103.65     for time:  4.600     to  4.800    
RIV   no.   13 value from time series:   103.65     for time:  4.600     to  4.800    
RIV   no.   14 value from time series:   103.65     for time:  4.600     to  4.800    
RIV   no.   15 value from time series:   103.65     for time:  4.600     to  4.800    
RIV   no.   16 value from time series:   103.65     for time:  4.600     to  4.800    
RIV   no.   17 value from time series:   103.65     for time:  4.600     to  4.800    
RIV   no.   18 value from time series:   103.65     for time:  4.600     to  4.800    
RIV   no.   19 value from time series:   103.65     for time:  4.600     to  4.800    
RIV   no.   20 value from time series:   103.65     for time:  4.600     to  4.800    
EVT   no.    1 value from time series:   987.19     for time:  4.600     to  4.800    
EVT   no.    2 value from time series:   1974.4     for time:  4.600     to  4.800    
EVT   no.    3 value from time series:   2961.6     for time:  4.600     to  4.800    
EVT   no.    4 value from time series:   3948.8     for time:  4.600     to  4.800    
EVT   no.   10 value from time series:   493.59     for time:  4.600     to  4.800    
EVT   no.   11 value from time series:   987.19     for time:  4.600     to  4.800    
EVT   no.   12 value from time series:   1974.4     for time:  4.600     to  4.800    
EVT   no.   13 value from time series:   2961.6     for time:  4.600     to  4.800    
EVT   no.   14 value from time series:   3948.8     for time:  4.600     to  4.800    
EVT   no.   20 value from time series:   493.59     for time:  4.600     to  4.800    
WEL   no.    2 value from time series:  -30000.     for time:  4.600     to  4.800    
WEL   no.    3 value from time series:  -9400.0     for time:  4.600     to  4.800    
RIV   no.    1 value from time series:   103.65     for time:  4.600     to  4.800    
RIV   no.    2 value from time series:   103.65     for time:  4.600     to  4.800    
RIV   no.    3 value from time series:   103.65     for time:  4.600     to  4.800    
RIV   no.    4 value from time series:   103.65     for time:  4.600     to  4.800    
RIV   no.    5 value from time series:   103.65     for time:  4.600     to  4.800    
RIV   no.    6 value from time series:   103.65     for time:  4.600     to  4.800    
RIV   no.    7 value from time series:   103.65     for time:  4.600     to  4.800    
RIV   no.    8 value from time series:   103.65     for time:  4.600     to  4.800    
RIV   no.    9 value from time series:   103.65     for time:  4.600     to  4.800    
RIV   no.   10 value from time series:   103.65     for time:  4.600     to  4.800    
RIV   no.   11 value from time series:   103.65     for time:  4.600     to  4.800    
RIV   no.   12 value from time series:   103.65     for time:  4.600     to  4.800    
RIV   no.   13 value from time series:   103.65     for time:  4.600     to  4.800    
RIV   no.   14 value from time series:   103.65     for time:  4.600     to  4.800    
RIV   no.   15 value from time series:   103.65     for time:  4.600     to  4.800    
RIV   no.   16 value from time series:   103.65     for time:  4.600     to  4.800    
RIV   no.   17 value from time series:   103.65     for time:  4.600     to  4.800    
RIV   no.   18 value from time series:   103.65     for time:  4.600     to  4.800    
RIV   no.   19 value from time series:   103.65     for time:  4.600     to  4.800    
RIV   no.   20 value from time series:   103.65     for time:  4.600     to  4.800    
EVT   no.    1 value from time series:   987.19     for time:  4.600     to  4.800    
EVT   no.    2 value from time series:   1974.4     for time:  4.600     to  4.800    
EVT   no.    3 value from time series:   2961.6     for time:  4.600     to  4.800    
EVT   no.    4 value from time series:   3948.8     for time:  4.600     to  4.800    
EVT   no.   10 value from time series:   493.59     for time:  4.600     to  4.800    
EVT   no.   11 value from time series:   987.19     for time:  4.600     to  4.800    
EVT   no.   12 value from time series:   1974.4     for time:  4.600     to  4.800    
EVT   no.   13 value from time series:   2961.6     for time:  4.600     to  4.800    
EVT   no.   14 value from time series:   3948.8     for time:  4.600     to  4.800    
EVT   no.   20 value from time series:   493.59     for time:  4.600     to  4.800    

 OUTPUT CONTROL FOR STRESS PERIOD    3   TIME STEP    9
    SAVE BUDGET
    SAVE HEAD
    SAVE HEAD FOR ALL LAYERS
 UBDSV1 SAVING      STORAGE(SS) ON UNIT   1017 AT TIME STEP      9, STRESS PERIOD      3
 UBDSV1 SAVING      STORAGE(SY) ON UNIT   1017 AT TIME STEP      9, STRESS PERIOD      3
 UBDSV1 SAVING FLOW RIGHT FACE  ON UNIT   1017 AT TIME STEP      9, STRESS PERIOD      3
 UBDSV1 SAVING FLOW FRONT FACE  ON UNIT   1017 AT TIME STEP      9, STRESS PERIOD      3
 UBDSV1 SAVING FLOW LOWER FACE  ON UNIT   1017 AT TIME STEP      9, STRESS PERIOD      3
 UBDSV4 SAVING WELLS NEAR RIVER ON UNIT   1017 AT TIME STEP      9, STRESS PERIOD      3

 WELLS NEAR RIVER   PERIOD  3   STEP  9
 BOUNDARY      1   LAYER   1   ROW     2   COL     3   RATE    -50.0000    
 BOUNDARY      2   LAYER   2   ROW     3   COL     4   RATE    -30000.0      WELL_1
 BOUNDARY      3   LAYER   2   ROW     8   COL     4   RATE    -9400.00      WELL_2
 UBDSV4 SAVING RIVER            ON UNIT   1017 AT TIME STEP      9, STRESS PERIOD      3

 RIVER              PERIOD  3   STEP  9
 BOUNDARY      1   LAYER   1   ROW     1   COL    15   RATE     4000.58    
 BOUNDARY      2   LAYER   1   ROW     2   COL    15   RATE     4018.13      RIV2
 BOUNDARY      3   LAYER   1   ROW     3   COL    15   RATE     4044.43      RIV3
 BOUNDARY      4   LAYER   1   ROW     4   COL    15   RATE     4071.83    
 BOUNDARY      5   LAYER   1   ROW     5   COL    15   RATE     4093.13    
 BOUNDARY      6   LAYER   1   ROW     6   COL    15   RATE     4093.77    
 BOUNDARY      7   LAYER   1   ROW     7   COL    15   RATE     4073.33      RIVX
 BOUNDARY      8   LAYER   1   ROW     8   COL    15   RATE     4042.98      RIVX
 BOUNDARY      9   LAYER   1   ROW     9   COL    15   RATE     4011.24      RIVX
 BOUNDARY     10   LAYER   1   ROW    10   COL    15   RATE     3988.57    
 BOUNDARY     11   LAYER   2   ROW     1   COL    15   RATE    -4.66397    
 BOUNDARY     12   LAYER   2   ROW     2   COL    15   RATE    -2.42316      RIV2
 BOUNDARY     13   LAYER   2   ROW     3   COL    15   RATE     1.11382      RIV3
 BOUNDARY     14   LAYER   2   ROW     4   COL    15   RATE     4.77520    
 BOUNDARY     15   LAYER   2   ROW     5   COL    15   RATE     7.30831    
 BOUNDARY     16   LAYER   2   ROW     6   COL    15   RATE     7.30189    
 BOUNDARY     17   LAYER   2   ROW     7   COL    15   RATE     4.66008      RIVX
 BOUNDARY     18   LAYER   2   ROW     8   COL    15   RATE    0.546468      RIVX
 BOUNDARY     19   LAYER   2   ROW     9   COL    15   RATE    -3.66016      RIVX
 BOUNDARY     20   LAYER   2   ROW    10   COL    15   RATE    -6.44477    

 GHB LAKES          PERIOD  3   STEP  9
 BOUNDARY      1   LAYER   1   ROW     3   COL     1   RATE    -7914.29    
 BOUNDARY      2   LAYER   1   ROW     7   COL     1   RATE     4330.42      GHB2_UPPER
 BOUNDARY      3   LAYER   1   ROW     7   COL     1   RATE    -11022.5      GHB2_LOWER
 UBDSV4 SAVING RECHARGE         ON UNIT   1017 AT TIME STEP      9, STRESS PERIOD      3

 RECHARGE           PERIOD  3   STEP  9
 BOUNDARY      2   LAYER   1   ROW     1   COL     2   RATE     750.000    
 BOUNDARY      3   LAYER   1   ROW     1   COL     3   RATE     750.000    
 BOUNDARY      4   LAYER   1   ROW     1   COL     4   RATE     750.000    
 BOUNDARY      5   LAYER   1   ROW     1   COL     5   RATE     750.000    
 BOUNDARY      6   LAYER   1   ROW     1   COL     6   RATE     750.000    
 BOUNDARY      7   LAYER   1   ROW     1   COL     7   RATE     750.000    
 BOUNDARY      8   LAYER   1   ROW     1   COL     8   RATE     750.000    
 BOUNDARY      9   LAYER   1   ROW     1   COL     9   RATE     750.000    
 BOUNDARY     10   LAYER   1   ROW     1   COL    10   RATE     750.000    
 BOUNDARY     11   LAYER   1   ROW     1   COL    11   RATE     750.000    
 BOUNDARY     12   LAYER   1   ROW     1   COL    12   RATE     750.000    
 BOUNDARY     13   LAYER   1   ROW     1   COL    13   RATE     750.000    
 BOUNDARY     14   LAYER   1   ROW     1   COL    14   RATE     750.000    
 BOUNDARY     15   LAYER   1   ROW     1   COL    15   RATE     750.000    
 BOUNDARY     16   LAYER   1   ROW     2   COL     1   RATE     750.000    
 BOUNDARY     17   LAYER   1   ROW     2   COL     2   RATE     750.000    
 BOUNDARY     18   LAYER   1   ROW     2   COL     3   RATE     750.000    
 BOUNDARY     19   LAYER   1   ROW     2   COL     4   RATE     750.000    
 BOUNDARY     20   LAYER   1   ROW     2   COL     5   RATE     750.000    
 BOUNDARY     21   LAYER   1   ROW     2   COL     6   RATE     750.000    
 BOUNDARY     22   LAYER   1   ROW     2   COL     7   RATE     750.000    
 BOUNDARY     23   LAYER   1   ROW     2   COL     8   RATE     750.000    
 BOUNDARY     24   LAYER   1   ROW     2   COL     9   RATE     750.000    
 BOUNDARY     25   LAYER   1   ROW     2   COL    10   RATE     750.000    
 BOUNDARY     26   LAYER   1   ROW     2   COL    11   RATE     750.000    
 BOUNDARY     27   LAYER   1   ROW     2   COL    12   RATE     750.000    
 BOUNDARY     28   LAYER   1   ROW     2   COL    13   RATE     750.000    
 BOUNDARY     29   LAYER   1   ROW     2   COL    14   RATE     750.000    
 BOUNDARY     30   LAYER   1   ROW     2   COL    15   RATE     750.000    
 BOUNDARY     31   LAYER   1   ROW     3   COL     1   RATE     750.000    
 BOUNDARY     32   LAYER   1   ROW     3   COL     2   RATE     750.000    
 BOUNDARY     33   LAYER   1   ROW     3   COL     3   RATE     750.000    
 BOUNDARY     34   LAYER   1   ROW     3   COL     4   RATE     750.000    
 BOUNDARY     35   LAYER   1   ROW     3   COL     5   RATE     750.000    
 BOUNDARY     36   LAYER   1   ROW     3   COL     6   RATE     750.000    
 BOUNDARY     37   LAYER   1   ROW     3   COL     7   RATE     750.000    
 BOUNDARY     38   LAYER   1   ROW     3   COL     8   RATE     750.000    
 BOUNDARY     39   LAYER   1   ROW     3   COL     9   RATE     750.000    
 BOUNDARY     40   LAYER   1   ROW     3   COL    10   RATE     750.000    
 BOUNDARY     41   LAYER   1   ROW     3   COL    11   RATE     750.000    
 BOUNDARY     42   LAYER   1   ROW     3   COL    12   RATE     750.000    
 BOUNDARY     43   LAYER   1   ROW     3   COL    13   RATE     750.000    
 BOUNDARY     44   LAYER   1   ROW     3   COL    14   RATE     750.000    
 BOUNDARY     45   LAYER   1   ROW     3   COL    15   RATE     750.000    
 BOUNDARY     47   LAYER   1   ROW     4   COL     2   RATE     750.000    
 BOUNDARY     48   LAYER   1   ROW     4   COL     3   RATE     750.000    
 BOUNDARY     49   LAYER   1   ROW     4   COL     4   RATE     750.000    
 BOUNDARY     50   LAYER   1   ROW     4   COL     5   RATE     750.000    
 BOUNDARY     51   LAYER   1   ROW     4   COL     6   RATE     750.000    
 BOUNDARY     52   LAYER   1   ROW     4   COL     7   RATE     750.000    
 BOUNDARY     53   LAYER   1   ROW     4   COL     8   RATE     750.000    
 BOUNDARY     54   LAYER   1   ROW     4   COL     9   RATE     750.000    
 BOUNDARY     55   LAYER   1   ROW     4   COL    10   RATE     750.000    
 BOUNDARY     56   LAYER   1   ROW     4   COL    11   RATE     750.000    
 BOUNDARY     57   LAYER   1   ROW     4   COL    12   RATE     750.000    
 BOUNDARY     58   LAYER   1   ROW     4   COL    13   RATE     750.000    
 BOUNDARY     59   LAYER   1   ROW     4   COL    14   RATE     750.000    
 BOUNDARY     60   LAYER   1   ROW     4   COL    15   RATE     750.000    
 BOUNDARY     62   LAYER   1   ROW     5   COL     2   RATE     750.000    
 BOUNDARY     63   LAYER   1   ROW     5   COL     3   RATE     750.000    
 BOUNDARY     64   LAYER   1   ROW     5   COL     4   RATE     750.000    
 BOUNDARY     65   LAYER   1   ROW     5   COL     5   RATE     750.000    
 BOUNDARY     66   LAYER   1   ROW     5   COL     6   RATE     750.000    
 BOUNDARY     67   LAYER   1   ROW     5   COL     7   RATE     750.000    
 BOUNDARY     68   LAYER   1   ROW     5   COL     8   RATE     750.000    
 BOUNDARY     69   LAYER   1   ROW     5   COL     9   RATE     750.000    
 BOUNDARY     70   LAYER   1   ROW     5   COL    10   RATE     750.000    
 BOUNDARY     71   LAYER   1   ROW     5   COL    11   RATE     750.000    
 BOUNDARY     72   LAYER   1   ROW     5   COL    12   RATE     750.000    
 BOUNDARY     73   LAYER   1   ROW     5   COL    13   RATE     750.000    
 BOUNDARY     74   LAYER   1   ROW     5   COL    14   RATE     750.000    
 BOUNDARY     75   LAYER   1   ROW     5   COL    15   RATE     750.000    
 BOUNDARY     77   LAYER   1   ROW     6   COL     2   RATE     750.000    
 BOUNDARY     78   LAYER   1   ROW     6   COL     3   RATE     750.000    
 BOUNDARY     79   LAYER   1   ROW     6   COL     4   RATE     750.000    
 BOUNDARY     80   LAYER   1   ROW     6   COL     5   RATE     750.000    
 BOUNDARY     81   LAYER   1   ROW     6   COL     6   RATE     750.000    
 BOUNDARY     82   LAYER   1   ROW     6   COL     7   RATE     750.000    
 BOUNDARY     83   LAYER   1   ROW     6   COL     8   RATE     750.000    
 BOUNDARY     84   LAYER   1   ROW     6   COL     9   RATE     750.000    
 BOUNDARY     85   LAYER   1   ROW     6   COL    10   RATE     750.000    
 BOUNDARY     86   LAYER   1   ROW     6   COL    11   RATE     750.000    
 BOUNDARY     87   LAYER   1   ROW     6   COL    12   RATE     750.000    
 BOUNDARY     88   LAYER   1   ROW     6   COL    13   RATE     750.000    
 BOUNDARY     89   LAYER   1   ROW     6   COL    14   RATE     750.000    
 BOUNDARY     90   LAYER   1   ROW     6   COL    15   RATE     750.000    
 BOUNDARY     91   LAYER   1   ROW     7   COL     1   RATE     750.000    
 BOUNDARY     92   LAYER   1   ROW     7   COL     2   RATE     750.000    
 BOUNDARY     93   LAYER   1   ROW     7   COL     3   RATE     750.000    
 BOUNDARY     94   LAYER   1   ROW     7   COL     4   RATE     750.000    
 BOUNDARY     95   LAYER   1   ROW     7   COL     5   RATE     750.000    
 BOUNDARY     96   LAYER   1   ROW     7   COL     6   RATE     750.000    
 BOUNDARY     97   LAYER   1   ROW     7   COL     7   RATE     750.000    
 BOUNDARY     98   LAYER   1   ROW     7   COL     8   RATE     750.000    
 BOUNDARY     99   LAYER   1   ROW     7   COL     9   RATE     750.000    
 BOUNDARY    100   LAYER   1   ROW     7   COL    10   RATE     750.000    
 BOUNDARY    101   LAYER   1   ROW     7   COL    11   RATE     750.000    
 BOUNDARY    102   LAYER   1   ROW     7   COL    12   RATE     750.000    
 BOUNDARY    103   LAYER   1   ROW     7   COL    13   RATE     750.000    
 BOUNDARY    104   LAYER   1   ROW     7   COL    14   RATE     750.000    
 BOUNDARY    105   LAYER   1   ROW     7   COL    15   RATE     750.000    
 BOUNDARY    106   LAYER   1   ROW     8   COL     1   RATE     750.000    
 BOUNDARY    107   LAYER   1   ROW     8   COL     2   RATE     750.000    
 BOUNDARY    108   LAYER   1   ROW     8   COL     3   RATE     750.000    
 BOUNDARY    109   LAYER   1   ROW     8   COL     4   RATE     750.000    
 BOUNDARY    110   LAYER   1   ROW     8   COL     5   RATE     750.000    
 BOUNDARY    111   LAYER   1   ROW     8   COL     6   RATE     750.000    
 BOUNDARY    112   LAYER   1   ROW     8   COL     7   RATE     750.000    
 BOUNDARY    113   LAYER   1   ROW     8   COL     8   RATE     750.000    
 BOUNDARY    114   LAYER   1   ROW     8   COL     9   RATE     750.000    
 BOUNDARY    115   LAYER   1   ROW     8   COL    10   RATE     750.000    
 BOUNDARY    116   LAYER   1   ROW     8   COL    11   RATE     750.000    
 BOUNDARY    117   LAYER   1   ROW     8   COL    12   RATE     750.000    
 BOUNDARY    118   LAYER   1   ROW     8   COL    13   RATE     750.000    
 BOUNDARY    119   LAYER   1   ROW     8   COL    14   RATE     750.000    
 BOUNDARY    120   LAYER   1   ROW     8   COL    15   RATE     750.000    
 BOUNDARY    121   LAYER   1   ROW     9   COL     1   RATE     750.000    
 BOUNDARY    122   LAYER   1   ROW     9   COL     2   RATE     750.000    
 BOUNDARY    123   LAYER   1   ROW     9   COL     3   RATE     750.000    
 BOUNDARY    124   LAYER   1   ROW     9   COL     4   RATE     750.000    
 BOUNDARY    125   LAYER   1   ROW     9   COL     5   RATE     750.000    
 BOUNDARY    126   LAYER   1   ROW     9   COL     6   RATE     750.000    
 BOUNDARY    127   LAYER   1   ROW     9   COL     7   RATE     750.000    
 BOUNDARY    128   LAYER   1   ROW     9   COL     8   RATE     750.000    
 BOUNDARY    129   LAYER   1   ROW     9   COL     9   RATE     750.000    
 BOUNDARY    130   LAYER   1   ROW     9   COL    10   RATE     750.000    
 BOUNDARY    131   LAYER   1   ROW     9   COL    11   RATE     750.000    
 BOUNDARY    132   LAYER   1   ROW     9   COL    12   RATE     750.000    
 BOUNDARY    133   LAYER   1   ROW     9   COL    13   RATE     750.000    
 BOUNDARY    134   LAYER   1   ROW     9   COL    14   RATE     750.000    
 BOUNDARY    135   LAYER   1   ROW     9   COL    15   RATE     750.000    
 BOUNDARY    137   LAYER   1   ROW    10   COL     2   RATE     750.000    
 BOUNDARY    138   LAYER   1   ROW    10   COL     3   RATE     750.000    
 BOUNDARY    139   LAYER   1   ROW    10   COL     4   RATE     750.000    
 BOUNDARY    140   LAYER   1   ROW    10   COL     5   RATE     750.000    
 BOUNDARY    141   LAYER   1   ROW    10   COL     6   RATE     750.000    
 BOUNDARY    142   LAYER   1   ROW    10   COL     7   RATE     750.000    
 BOUNDARY    143   LAYER   1   ROW    10   COL     8   RATE     750.000    
 BOUNDARY    144   LAYER   1   ROW    10   COL     9   RATE     750.000    
 BOUNDARY    145   LAYER   1   ROW    10   COL    10   RATE     750.000    
 BOUNDARY    146   LAYER   1   ROW    10   COL    11   RATE     750.000    
 BOUNDARY    147   LAYER   1   ROW    10   COL    12   RATE     750.000    
 BOUNDARY    148   LAYER   1   ROW    10   COL    13   RATE     750.000    
 BOUNDARY    149   LAYER   1   ROW    10   COL    14   RATE     750.000    
 BOUNDARY    150   LAYER   1   ROW    10   COL    15   RATE     750.000    
 UBDSV4 SAVING ET SEGS          ON UNIT   1017 AT TIME STEP      9, STRESS PERIOD      3

 ET SEGS            PERIOD  3   STEP  9
 BOUNDARY      1   LAYER   1   ROW     1   COL    13   RATE    -77.0469      ET-1
 BOUNDARY      2   LAYER   1   ROW     2   COL    13   RATE    -145.791      ET-2
 BOUNDARY      3   LAYER   1   ROW     3   COL    13   RATE    -201.733      ET-3
 BOUNDARY      4   LAYER   1   ROW     4   COL    13   RATE    -245.648      ET-4
 BOUNDARY      5   LAYER   1   ROW     5   COL    13   RATE    -283.198      ET-5
 BOUNDARY      6   LAYER   1   ROW     6   COL    13   RATE    -282.336      ET-6
 BOUNDARY      7   LAYER   1   ROW     7   COL    13   RATE    -215.362      ET-7
 BOUNDARY      8   LAYER   1   ROW     8   COL    13   RATE    -170.313      ET-8
 BOUNDARY      9   LAYER   1   ROW     9   COL    13   RATE    -112.720      ET-9
 BOUNDARY     10   LAYER   1   ROW    10   COL    13   RATE    -39.8793      ET-10
 BOUNDARY     11   LAYER   1   ROW     1   COL    12   RATE    -120.674      ET-1
 BOUNDARY     12   LAYER   1   ROW     2   COL    12   RATE    -210.655      ET-2
 BOUNDARY     13   LAYER   1   ROW     3   COL    12   RATE    -282.932      ET-3
 BOUNDARY     14   LAYER   1   ROW     4   COL    12   RATE    -350.551      ET-4
 BOUNDARY     15   LAYER   1   ROW     5   COL    12   RATE    -410.906      ET-5
 BOUNDARY     16   LAYER   1   ROW     6   COL    12   RATE    -410.012      ET-6
 BOUNDARY     17   LAYER   1   ROW     7   COL    12   RATE    -308.031      ET-7
 BOUNDARY     18   LAYER   1   ROW     8   COL    12   RATE    -238.964      ET-8
 BOUNDARY     19   LAYER   1   ROW     9   COL    12   RATE    -167.461      ET-9
 BOUNDARY     20   LAYER   1   ROW    10   COL    12   RATE    -65.6613      ET-10
 UBDSV4 SAVING CONSTANT HEADS   ON UNIT   1017 AT TIME STEP      9, STRESS PERIOD      3

 CONSTANT HEADS     PERIOD  3   STEP  9
 BOUNDARY      1   LAYER   1   ROW     1   COL     1   RATE     2625.95      CHD-1
 BOUNDARY      2   LAYER   1   ROW     4   COL     1   RATE     4709.10    
 BOUNDARY      3   LAYER   1   ROW     5   COL     1   RATE     829.845      CHD_GP
 BOUNDARY      4   LAYER   1   ROW     6   COL     1   RATE     4305.37      CHD_GP
 BOUNDARY      5   LAYER   1   ROW    10   COL     1   RATE     1759.69      CHD-10

 HEAD WILL BE SAVED ON UNIT 1018 AT END OF TIME STEP    9, STRESS PERIOD    3
WEL   no.    2 value from time series:  -30000.     for time:  4.800     to  5.000    
WEL   no.    3 value from time series:  -9800.0     for time:  4.800     to  5.000    
RIV   no.    1 value from time series:   103.55     for time:  4.800     to  5.000    
RIV   no.    2 value from time series:   103.55     for time:  4.800     to  5.000    
RIV   no.    3 value from time series:   103.55     for time:  4.800     to  5.000    
RIV   no.    4 value from time series:   103.55     for time:  4.800     to  5.000    
RIV   no.    5 value from time series:   103.55     for time:  4.800     to  5.000    
RIV   no.    6 value from time series:   103.55     for time:  4.800     to  5.000    
RIV   no.    7 value from time series:   103.55     for time:  4.800     to  5.000    
RIV   no.    8 value from time series:   103.55     for time:  4.800     to  5.000    
RIV   no.    9 value from time series:   103.55     for time:  4.800     to  5.000    
RIV   no.   10 value from time series:   103.55     for time:  4.800     to  5.000    
RIV   no.   11 value from time series:   103.55     for time:  4.800     to  5.000    
RIV   no.   12 value from time series:   103.55     for time:  4.800     to  5.000    
RIV   no.   13 value from time series:   103.55     for time:  4.800     to  5.000    
RIV   no.   14 value from time series:   103.55     for time:  4.800     to  5.000    
RIV   no.   15 value from time series:   103.55     for time:  4.800     to  5.000    
RIV   no.   16 value from time series:   103.55     for time:  4.800     to  5.000    
RIV   no.   17 value from time series:   103.55     for time:  4.800     to  5.000    
RIV   no.   18 value from time series:   103.55     for time:  4.800     to  5.000    
RIV   no.   19 value from time series:   103.55     for time:  4.800     to  5.000    
RIV   no.   20 value from time series:   103.55     for time:  4.800     to  5.000    
EVT   no.    1 value from time series:   1004.1     for time:  4.800     to  5.000    
EVT   no.    2 value from time series:   2008.1     for time:  4.800     to  5.000    
EVT   no.    3 value from time series:   3012.2     for time:  4.800     to  5.000    
EVT   no.    4 value from time series:   4016.3     for time:  4.800     to  5.000    
EVT   no.   10 value from time series:   502.03     for time:  4.800     to  5.000    
EVT   no.   11 value from time series:   1004.1     for time:  4.800     to  5.000    
EVT   no.   12 value from time series:   2008.1     for time:  4.800     to  5.000    
EVT   no.   13 value from time series:   3012.2     for time:  4.800     to  5.000    
EVT   no.   14 value from time series:   4016.3     for time:  4.800     to  5.000    
EVT   no.   20 value from time series:   502.03     for time:  4.800     to  5.000    
WEL   no.    2 value from time series:  -30000.     for time:  4.800     to  5.000    
WEL   no.    3 value from time series:  -9800.0     for time:  4.800     to  5.000    
RIV   no.    1 value from time series:   103.55     for time:  4.800     to  5.000    
RIV   no.    2 value from time series:   103.55     for time:  4.800     to  5.000    
RIV   no.    3 value from time series:   103.55     for time:  4.800     to  5.000    
RIV   no.    4 value from time series:   103.55     for time:  4.800     to  5.000    
RIV   no.    5 value from time series:   103.55     for time:  4.800     to  5.000    
RIV   no.    6 value from time series:   103.55     for time:  4.800     to  5.000    
RIV   no.    7 value from time series:   103.55     for time:  4.800     to  5.000    
RIV   no.    8 value from time series:   103.55     for time:  4.800     to  5.000    
RIV   no.    9 value from time series:   103.55     for time:  4.800     to  5.000    
RIV   no.   10 value from time series:   103.55     for time:  4.800     to  5.000    
RIV   no.   11 value from time series:   103.55     for time:  4.800     to  5.000    
RIV   no.   12 value from time series:   103.55     for time:  4.800     to  5.000    
RIV   no.   13 value from time series:   103.55     for time:  4.800     to  5.000    
RIV   no.   14 value from time series:   103.55     for time:  4.800     to  5.000    
RIV   no.   15 value from time series:   103.55     for time:  4.800     to  5.000    
RIV   no.   16 value from time series:   103.55     for time:  4.800     to  5.000    
RIV   no.   17 value from time series:   103.55     for time:  4.800     to  5.000    
RIV   no.   18 value from time series:   103.55     for time:  4.800     to  5.000    
RIV   no.   19 value from time series:   103.55     for time:  4.800     to  5.000    
RIV   no.   20 value from time series:   103.55     for time:  4.800     to  5.000    
EVT   no.    1 value from time series:   1004.1     for time:  4.800     to  5.000    
EVT   no.    2 value from time series:   2008.1     for time:  4.800     to  5.000    
EVT   no.    3 value from time series:   3012.2     for time:  4.800     to  5.000    
EVT   no.    4 value from time series:   4016.3     for time:  4.800     to  5.000    
EVT   no.   10 value from time series:   502.03     for time:  4.800     to  5.000    
EVT   no.   11 value from time series:   1004.1     for time:  4.800     to  5.000    
EVT   no.   12 value from time series:   2008.1     for time:  4.800     to  5.000    
EVT   no.   13 value from time series:   3012.2     for time:  4.800     to  5.000    
EVT   no.   14 value from time series:   4016.3     for time:  4.800     to  5.000    
EVT   no.   20 value from time series:   502.03     for time:  4.800     to  5.000    

 OUTPUT CONTROL FOR STRESS PERIOD    3   TIME STEP   10
    PRINT BUDGET
    SAVE BUDGET
    SAVE HEAD
    SAVE HEAD FOR ALL LAYERS
 UBDSV1 SAVING      STORAGE(SS) ON UNIT   1017 AT TIME STEP     10, STRESS PERIOD      3
 UBDSV1 SAVING      STORAGE(SY) ON UNIT   1017 AT TIME STEP     10, STRESS PERIOD      3
 UBDSV1 SAVING FLOW RIGHT FACE  ON UNIT   1017 AT TIME STEP     10, STRESS PERIOD      3
 UBDSV1 SAVING FLOW FRONT FACE  ON UNIT   1017 AT TIME STEP     10, STRESS PERIOD      3
 UBDSV1 SAVING FLOW LOWER FACE  ON UNIT   1017 AT TIME STEP     10, STRESS PERIOD      3
 UBDSV4 SAVING WELLS NEAR RIVER ON UNIT   1017 AT TIME STEP     10, STRESS PERIOD      3

 WELLS NEAR RIVER   PERIOD  3   STEP 10
 BOUNDARY      1   LAYER   1   ROW     2   COL     3   RATE    -50.0000    
 BOUNDARY      2   LAYER   2   ROW     3   COL     4   RATE    -30000.0      WELL_1
 BOUNDARY      3   LAYER   2   ROW     8   COL     4   RATE    -9800.00      WELL_2
 UBDSV4 SAVING RIVER            ON UNIT   1017 AT TIME STEP     10, STRESS PERIOD      3

 RIVER              PERIOD  3   STEP 10
 BOUNDARY      1   LAYER   1   ROW     1   COL    15   RATE     2726.34    
 BOUNDARY      2   LAYER   1   ROW     2   COL    15   RATE     2743.86      RIV2
 BOUNDARY      3   LAYER   1   ROW     3   COL    15   RATE     2770.12      RIV3
 BOUNDARY      4   LAYER   1   ROW     4   COL    15   RATE     2797.49    
 BOUNDARY      5   LAYER   1   ROW     5   COL    15   RATE     2818.76    
 BOUNDARY      6   LAYER   1   ROW     6   COL    15   RATE     2819.40    
 BOUNDARY      7   LAYER   1   ROW     7   COL    15   RATE     2798.99      RIVX
 BOUNDARY      8   LAYER   1   ROW     8   COL    15   RATE     2768.68      RIVX
 BOUNDARY      9   LAYER   1   ROW     9   COL    15   RATE     2736.99      RIVX
 BOUNDARY     10   LAYER   1   ROW    10   COL    15   RATE     2714.35    
 BOUNDARY     11   LAYER   2   ROW     1   COL    15   RATE    -12.6896    
 BOUNDARY     12   LAYER   2   ROW     2   COL    15   RATE    -10.4665      RIV2
 BOUNDARY     13   LAYER   2   ROW     3   COL    15   RATE    -6.95855      RIV3
 BOUNDARY     14   LAYER   2   ROW     4   COL    15   RATE    -3.32671    
 BOUNDARY     15   LAYER   2   ROW     5   COL    15   RATE   -0.812202    
 BOUNDARY     16   LAYER   2   ROW     6   COL    15   RATE   -0.817552    
 BOUNDARY     17   LAYER   2   ROW     7   COL    15   RATE    -3.43825      RIVX
 BOUNDARY     18   LAYER   2   ROW     8   COL    15   RATE    -7.51826      RIVX
 BOUNDARY     19   LAYER   2   ROW     9   COL    15   RATE    -11.6912      RIVX
 BOUNDARY     20   LAYER   2   ROW    10   COL    15   RATE    -14.4547    

 GHB LAKES          PERIOD  3   STEP 10
 BOUNDARY      1   LAYER   1   ROW     3   COL     1   RATE    -7920.07    
 BOUNDARY      2   LAYER   1   ROW     7   COL     1   RATE     4325.29      GHB2_UPPER
 BOUNDARY      3   LAYER   1   ROW     7   COL     1   RATE    -11024.3      GHB2_LOWER
 UBDSV4 SAVING RECHARGE         ON UNIT   1017 AT TIME STEP     10, STRESS PERIOD      3

 RECHARGE           PERIOD  3   STEP 10
 BOUNDARY      2   LAYER   1   ROW     1   COL     2   RATE     750.000    
 BOUNDARY      3   LAYER   1   ROW     1   COL     3   RATE     750.000    
 BOUNDARY      4   LAYER   1   ROW     1   COL     4   RATE     750.000    
 BOUNDARY      5   LAYER   1   ROW     1   COL     5   RATE     750.000    
 BOUNDARY      6   LAYER   1   ROW     1   COL     6   RATE     750.000    
 BOUNDARY      7   LAYER   1   ROW     1   COL     7   RATE     750.000    
 BOUNDARY      8   LAYER   1   ROW     1   COL     8   RATE     750.000    
 BOUNDARY      9   LAYER   1   ROW     1   COL     9   RATE     750.000    
 BOUNDARY     10   LAYER   1   ROW     1   COL    10   RATE     750.000    
 BOUNDARY     11   LAYER   1   ROW     1   COL    11   RATE     750.000    
 BOUNDARY     12   LAYER   1   ROW     1   COL    12   RATE     750.000    
 BOUNDARY     13   LAYER   1   ROW     1   COL    13   RATE     750.000    
 BOUNDARY     14   LAYER   1   ROW     1   COL    14   RATE     750.000    
 BOUNDARY     15   LAYER   1   ROW     1   COL    15   RATE     750.000    
 BOUNDARY     16   LAYER   1   ROW     2   COL     1   RATE     750.000    
 BOUNDARY     17   LAYER   1   ROW     2   COL     2   RATE     750.000    
 BOUNDARY     18   LAYER   1   ROW     2   COL     3   RATE     750.000    
 BOUNDARY     19   LAYER   1   ROW     2   COL     4   RATE     750.000    
 BOUNDARY     20   LAYER   1   ROW     2   COL     5   RATE     750.000    
 BOUNDARY     21   LAYER   1   ROW     2   COL     6   RATE     750.000    
 BOUNDARY     22   LAYER   1   ROW     2   COL     7   RATE     750.000    
 BOUNDARY     23   LAYER   1   ROW     2   COL     8   RATE     750.000    
 BOUNDARY     24   LAYER   1   ROW     2   COL     9   RATE     750.000    
 BOUNDARY     25   LAYER   1   ROW     2   COL    10   RATE     750.000    
 BOUNDARY     26   LAYER   1   ROW     2   COL    11   RATE     750.000    
 BOUNDARY     27   LAYER   1   ROW     2   COL    12   RATE     750.000    
 BOUNDARY     28   LAYER   1   ROW     2   COL    13   RATE     750.000    
 BOUNDARY     29   LAYER   1   ROW     2   COL    14   RATE     750.000    
 BOUNDARY     30   LAYER   1   ROW     2   COL    15   RATE     750.000    
 BOUNDARY     31   LAYER   1   ROW     3   COL     1   RATE     750.000    
 BOUNDARY     32   LAYER   1   ROW     3   COL     2   RATE     750.000    
 BOUNDARY     33   LAYER   1   ROW     3   COL     3   RATE     750.000    
 BOUNDARY     34   LAYER   1   ROW     3   COL     4   RATE     750.000    
 BOUNDARY     35   LAYER   1   ROW     3   COL     5   RATE     750.000    
 BOUNDARY     36   LAYER   1   ROW     3   COL     6   RATE     750.000    
 BOUNDARY     37   LAYER   1   ROW     3   COL     7   RATE     750.000    
 BOUNDARY     38   LAYER   1   ROW     3   COL     8   RATE     750.000    
 BOUNDARY     39   LAYER   1   ROW     3   COL     9   RATE     750.000    
 BOUNDARY     40   LAYER   1   ROW     3   COL    10   RATE     750.000    
 BOUNDARY     41   LAYER   1   ROW     3   COL    11   RATE     750.000    
 BOUNDARY     42   LAYER   1   ROW     3   COL    12   RATE     750.000    
 BOUNDARY     43   LAYER   1   ROW     3   COL    13   RATE     750.000    
 BOUNDARY     44   LAYER   1   ROW     3   COL    14   RATE     750.000    
 BOUNDARY     45   LAYER   1   ROW     3   COL    15   RATE     750.000    
 BOUNDARY     47   LAYER   1   ROW     4   COL     2   RATE     750.000    
 BOUNDARY     48   LAYER   1   ROW     4   COL     3   RATE     750.000    
 BOUNDARY     49   LAYER   1   ROW     4   COL     4   RATE     750.000    
 BOUNDARY     50   LAYER   1   ROW     4   COL     5   RATE     750.000    
 BOUNDARY     51   LAYER   1   ROW     4   COL     6   RATE     750.000    
 BOUNDARY     52   LAYER   1   ROW     4   COL     7   RATE     750.000    
 BOUNDARY     53   LAYER   1   ROW     4   COL     8   RATE     750.000    
 BOUNDARY     54   LAYER   1   ROW     4   COL     9   RATE     750.000    
 BOUNDARY     55   LAYER   1   ROW     4   COL    10   RATE     750.000    
 BOUNDARY     56   LAYER   1   ROW     4   COL    11   RATE     750.000    
 BOUNDARY     57   LAYER   1   ROW     4   COL    12   RATE     750.000    
 BOUNDARY     58   LAYER   1   ROW     4   COL    13   RATE     750.000    
 BOUNDARY     59   LAYER   1   ROW     4   COL    14   RATE     750.000    
 BOUNDARY     60   LAYER   1   ROW     4   COL    15   RATE     750.000    
 BOUNDARY     62   LAYER   1   ROW     5   COL     2   RATE     750.000    
 BOUNDARY     63   LAYER   1   ROW     5   COL     3   RATE     750.000    
 BOUNDARY     64   LAYER   1   ROW     5   COL     4   RATE     750.000    
 BOUNDARY     65   LAYER   1   ROW     5   COL     5   RATE     750.000    
 BOUNDARY     66   LAYER   1   ROW     5   COL     6   RATE     750.000    
 BOUNDARY     67   LAYER   1   ROW     5   COL     7   RATE     750.000    
 BOUNDARY     68   LAYER   1   ROW     5   COL     8   RATE     750.000    
 BOUNDARY     69   LAYER   1   ROW     5   COL     9   RATE     750.000    
 BOUNDARY     70   LAYER   1   ROW     5   COL    10   RATE     750.000    
 BOUNDARY     71   LAYER   1   ROW     5   COL    11   RATE     750.000    
 BOUNDARY     72   LAYER   1   ROW     5   COL    12   RATE     750.000    
 BOUNDARY     73   LAYER   1   ROW     5   COL    13   RATE     750.000    
 BOUNDARY     74   LAYER   1   ROW     5   COL    14   RATE     750.000    
 BOUNDARY     75   LAYER   1   ROW     5   COL    15   RATE     750.000    
 BOUNDARY     77   LAYER   1   ROW     6   COL     2   RATE     750.000    
 BOUNDARY     78   LAYER   1   ROW     6   COL     3   RATE     750.000    
 BOUNDARY     79   LAYER   1   ROW     6   COL     4   RATE     750.000    
 BOUNDARY     80   LAYER   1   ROW     6   COL     5   RATE     750.000    
 BOUNDARY     81   LAYER   1   ROW     6   COL     6   RATE     750.000    
 BOUNDARY     82   LAYER   1   ROW     6   COL     7   RATE     750.000    
 BOUNDARY     83   LAYER   1   ROW     6   COL     8   RATE     750.000    
 BOUNDARY     84   LAYER   1   ROW     6   COL     9   RATE     750.000    
 BOUNDARY     85   LAYER   1   ROW     6   COL    10   RATE     750.000    
 BOUNDARY     86   LAYER   1   ROW     6   COL    11   RATE     750.000    
 BOUNDARY     87   LAYER   1   ROW     6   COL    12   RATE     750.000    
 BOUNDARY     88   LAYER   1   ROW     6   COL    13   RATE     750.000    
 BOUNDARY     89   LAYER   1   ROW     6   COL    14   RATE     750.000    
 BOUNDARY     90   LAYER   1   ROW     6   COL    15   RATE     750.000    
 BOUNDARY     91   LAYER   1   ROW     7   COL     1   RATE     750.000    
 BOUNDARY     92   LAYER   1   ROW     7   COL     2   RATE     750.000    
 BOUNDARY     93   LAYER   1   ROW     7   COL     3   RATE     750.000    
 BOUNDARY     94   LAYER   1   ROW     7   COL     4   RATE     750.000    
 BOUNDARY     95   LAYER   1   ROW     7   COL     5   RATE     750.000    
 BOUNDARY     96   LAYER   1   ROW     7   COL     6   RATE     750.000    
 BOUNDARY     97   LAYER   1   ROW     7   COL     7   RATE     750.000    
 BOUNDARY     98   LAYER   1   ROW     7   COL     8   RATE     750.000    
 BOUNDARY     99   LAYER   1   ROW     7   COL     9   RATE     750.000    
 BOUNDARY    100   LAYER   1   ROW     7   COL    10   RATE     750.000    
 BOUNDARY    101   LAYER   1   ROW     7   COL    11   RATE     750.000    
 BOUNDARY    102   LAYER   1   ROW     7   COL    12   RATE     750.000    
 BOUNDARY    103   LAYER   1   ROW     7   COL    13   RATE     750.000    
 BOUNDARY    104   LAYER   1   ROW     7   COL    14   RATE     750.000    
 BOUNDARY    105   LAYER   1   ROW     7   COL    15   RATE     750.000    
 BOUNDARY    106   LAYER   1   ROW     8   COL     1   RATE     750.000    
 BOUNDARY    107   LAYER   1   ROW     8   COL     2   RATE     750.000    
 BOUNDARY    108   LAYER   1   ROW     8   COL     3   RATE     750.000    
 BOUNDARY    109   LAYER   1   ROW     8   COL     4   RATE     750.000    
 BOUNDARY    110   LAYER   1   ROW     8   COL     5   RATE     750.000    
 BOUNDARY    111   LAYER   1   ROW     8   COL     6   RATE     750.000    
 BOUNDARY    112   LAYER   1   ROW     8   COL     7   RATE     750.000    
 BOUNDARY    113   LAYER   1   ROW     8   COL     8   RATE     750.000    
 BOUNDARY    114   LAYER   1   ROW     8   COL     9   RATE     750.000    
 BOUNDARY    115   LAYER   1   ROW     8   COL    10   RATE     750.000    
 BOUNDARY    116   LAYER   1   ROW     8   COL    11   RATE     750.000    
 BOUNDARY    117   LAYER   1   ROW     8   COL    12   RATE     750.000    
 BOUNDARY    118   LAYER   1   ROW     8   COL    13   RATE     750.000    
 BOUNDARY    119   LAYER   1   ROW     8   COL    14   RATE     750.000    
 BOUNDARY    120   LAYER   1   ROW     8   COL    15   RATE     750.000    
 BOUNDARY    121   LAYER   1   ROW     9   COL     1   RATE     750.000    
 BOUNDARY    122   LAYER   1   ROW     9   COL     2   RATE     750.000    
 BOUNDARY    123   LAYER   1   ROW     9   COL     3   RATE     750.000    
 BOUNDARY    124   LAYER   1   ROW     9   COL     4   RATE     750.000    
 BOUNDARY    125   LAYER   1   ROW     9   COL     5   RATE     750.000    
 BOUNDARY    126   LAYER   1   ROW     9   COL     6   RATE     750.000    
 BOUNDARY    127   LAYER   1   ROW     9   COL     7   RATE     750.000    
 BOUNDARY    128   LAYER   1   ROW     9   COL     8   RATE     750.000    
 BOUNDARY    129   LAYER   1   ROW     9   COL     9   RATE     750.000    
 BOUNDARY    130   LAYER   1   ROW     9   COL    10   RATE     750.000    
 BOUNDARY    131   LAYER   1   ROW     9   COL    11   RATE     750.000    
 BOUNDARY    132   LAYER   1   ROW     9   COL    12   RATE     750.000    
 BOUNDARY    133   LAYER   1   ROW     9   COL    13   RATE     750.000    
 BOUNDARY    134   LAYER   1   ROW     9   COL    14   RATE     750.000    
 BOUNDARY    135   LAYER   1   ROW     9   COL    15   RATE     750.000    
 BOUNDARY    137   LAYER   1   ROW    10   COL     2   RATE     750.000    
 BOUNDARY    138   LAYER   1   ROW    10   COL     3   RATE     750.000    
 BOUNDARY    139   LAYER   1   ROW    10   COL     4   RATE     750.000    
 BOUNDARY    140   LAYER   1   ROW    10   COL     5   RATE     750.000    
 BOUNDARY    141   LAYER   1   ROW    10   COL     6   RATE     750.000    
 BOUNDARY    142   LAYER   1   ROW    10   COL     7   RATE     750.000    
 BOUNDARY    143   LAYER   1   ROW    10   COL     8   RATE     750.000    
 BOUNDARY    144   LAYER   1   ROW    10   COL     9   RATE     750.000    
 BOUNDARY    145   LAYER   1   ROW    10   COL    10   RATE     750.000    
 BOUNDARY    146   LAYER   1   ROW    10   COL    11   RATE     750.000    
 BOUNDARY    147   LAYER   1   ROW    10   COL    12   RATE     750.000    
 BOUNDARY    148   LAYER   1   ROW    10   COL    13   RATE     750.000    
 BOUNDARY    149   LAYER   1   ROW    10   COL    14   RATE     750.000    
 BOUNDARY    150   LAYER   1   ROW    10   COL    15   RATE     750.000    
 UBDSV4 SAVING ET SEGS          ON UNIT   1017 AT TIME STEP     10, STRESS PERIOD      3

 ET SEGS            PERIOD  3   STEP 10
 BOUNDARY      1   LAYER   1   ROW     1   COL    13   RATE    -78.4750      ET-1
 BOUNDARY      2   LAYER   1   ROW     2   COL    13   RATE    -148.500      ET-2
 BOUNDARY      3   LAYER   1   ROW     3   COL    13   RATE    -205.501      ET-3
 BOUNDARY      4   LAYER   1   ROW     4   COL    13   RATE    -250.266      ET-4
 BOUNDARY      5   LAYER   1   ROW     5   COL    13   RATE    -283.758      ET-5
 BOUNDARY      6   LAYER   1   ROW     6   COL    13   RATE    -282.896      ET-6
 BOUNDARY      7   LAYER   1   ROW     7   COL    13   RATE    -215.756      ET-7
 BOUNDARY      8   LAYER   1   ROW     8   COL    13   RATE    -170.595      ET-8
 BOUNDARY      9   LAYER   1   ROW     9   COL    13   RATE    -112.890      ET-9
 BOUNDARY     10   LAYER   1   ROW    10   COL    13   RATE    -40.6173      ET-10
 BOUNDARY     11   LAYER   1   ROW     1   COL    12   RATE    -123.094      ET-1
 BOUNDARY     12   LAYER   1   ROW     2   COL    12   RATE    -214.945      ET-2
 BOUNDARY     13   LAYER   1   ROW     3   COL    12   RATE    -288.074      ET-3
 BOUNDARY     14   LAYER   1   ROW     4   COL    12   RATE    -356.940      ET-4
 BOUNDARY     15   LAYER   1   ROW     5   COL    12   RATE    -411.457      ET-5
 BOUNDARY     16   LAYER   1   ROW     6   COL    12   RATE    -410.563      ET-6
 BOUNDARY     17   LAYER   1   ROW     7   COL    12   RATE    -308.419      ET-7
 BOUNDARY     18   LAYER   1   ROW     8   COL    12   RATE    -239.242      ET-8
 BOUNDARY     19   LAYER   1   ROW     9   COL    12   RATE    -168.012      ET-9
 BOUNDARY     20   LAYER   1   ROW    10   COL    12   RATE    -66.9663      ET-10
 UBDSV4 SAVING CONSTANT HEADS   ON UNIT   1017 AT TIME STEP     10, STRESS PERIOD      3

 CONSTANT HEADS     PERIOD  3   STEP 10
 BOUNDARY      1   LAYER   1   ROW     1   COL     1   RATE     2626.00      CHD-1
 BOUNDARY      2   LAYER   1   ROW     4   COL     1   RATE     4709.97    
 BOUNDARY      3   LAYER   1   ROW     5   COL     1   RATE     830.548      CHD_GP
 BOUNDARY      4   LAYER   1   ROW     6   COL     1   RATE     4304.76      CHD_GP
 BOUNDARY      5   LAYER   1   ROW    10   COL     1   RATE     1757.86      CHD-10

 HEAD WILL BE SAVED ON UNIT 1018 AT END OF TIME STEP   10, STRESS PERIOD    3
1
  VOLUME BUDGET FOR ENTIRE MODEL AT END OF TIME STEP   10, STRESS PERIOD   3
  ------------------------------------------------------------------------------

     CUMULATIVE VOLUME      L**3       RATES FOR THIS TIME STEP      L**3/T
     ------------------                 ------------------------

           IN:                                      IN:
           ---                                      ---
         STORAGE(SS) =       51623.8740           STORAGE(SS) =       10228.9462
         STORAGE(SY) =       70522.4773           STORAGE(SY) =       20173.2959
    WELLS NEAR RIVER =           0.0000      WELLS NEAR RIVER =           0.0000
               RIVER =      517700.5886                 RIVER =       27694.9809
           GHB LAKES =       21954.5920             GHB LAKES =        4325.2859
            RECHARGE =      442250.0000              RECHARGE =      108750.0000
             ET SEGS =           0.0000               ET SEGS =           0.0000
      CONSTANT HEADS =       71438.4741        CONSTANT HEADS =       14229.1334

            TOTAL IN =     1175490.0060              TOTAL IN =      185401.6424

          OUT:                                     OUT:
          ----                                     ----
         STORAGE(SS) =        2035.9916           STORAGE(SS) =         195.2424
         STORAGE(SY) =      911628.6395           STORAGE(SY) =      121962.8779
    WELLS NEAR RIVER =      144240.0000      WELLS NEAR RIVER =       39850.0000
               RIVER =        3532.1860                 RIVER =          72.1735
           GHB LAKES =       94075.5344             GHB LAKES =       18944.3823
            RECHARGE =           0.0000              RECHARGE =           0.0000
             ET SEGS =       19977.6599               ET SEGS =        4376.9663
      CONSTANT HEADS =           0.0000        CONSTANT HEADS =           0.0000

           TOTAL OUT =     1175490.0114             TOTAL OUT =      185401.6424

            IN - OUT =      -5.4014E-03              IN - OUT =       1.4843E-09

 PERCENT DISCREPANCY =          -0.00     PERCENT DISCREPANCY =           0.00






         TIME SUMMARY AT END OF TIME STEP   10 IN STRESS PERIOD    3
                    SECONDS     MINUTES      HOURS       DAYS        YEARS
                    -----------------------------------------------------------
   TIME STEP LENGTH  17280.      288.00      4.8000     0.20000     5.47570E-04
 STRESS PERIOD TIME 1.72800E+05  2880.0      48.000      2.0000     5.47570E-03
         TOTAL TIME 4.32000E+05  7200.0      120.00      5.0000     1.36893E-02

 REUSING STORAGE VALUES FROM LAST STRESS PERIOD
 #        k         i         j      flow      var1    var2 var3

 WEL NO.  LAYER   ROW    COL     STRESS RATE  BOUNDARY NAME         VAR1            VAR2            VAR3            
 -------------------------------------------------------------------------------------------------------------------
      1      2      8      4     -0.1220E+05  WELL_2                1.0000           2.000           3.000    
      2      2      3      4     -0.3000E+05  WELL_1                 4.000           5.000           6.000    
 #    layer       row       col    stage        cond       rbot  BoundName

 RIV NO.  LAYER   ROW    COL       STAGE         CONDUCTANCE  BOTTOM EL.      BOUNDARY NAME         
 ---------------------------------------------------------------------------------------------------
      1      1      1     15       103.0          0.1000E+05      100.00                      
      2      1      2     15       103.0          0.1000E+05      100.00      RIV2            
      3      1      3     15       103.0          0.1000E+05      100.00      RIV3            
      4      1      4     15       103.0          0.1000E+05      100.00                      
      5      1      5     15       103.0          0.1000E+05      100.00                      
      6      1      6     15       103.0          0.1000E+05      100.00                      
      7      1      7     15       103.0          0.1000E+05      100.00      RIVX            
      8      1      8     15       103.0          0.1000E+05      100.00      RIVX            
      9      1      9     15       103.0          0.1000E+05      100.00      RIVX            
     10      1     10     15       103.0          0.1000E+05      100.00                      

 REUSING GHBS FROM LAST STRESS PERIOD

 REUSING RCHS FROM LAST STRESS PERIOD

 REUSING EVTS FROM LAST STRESS PERIOD

 REUSING CHDS FROM LAST STRESS PERIOD
WEL   no.    1 value from time series:  -10200.     for time:  5.000     to  5.200    
WEL   no.    2 value from time series:  -30000.     for time:  5.000     to  5.200    
RIV   no.    1 value from time series:   103.45     for time:  5.000     to  5.200    
RIV   no.    2 value from time series:   103.45     for time:  5.000     to  5.200    
RIV   no.    3 value from time series:   103.45     for time:  5.000     to  5.200    
RIV   no.    4 value from time series:   103.45     for time:  5.000     to  5.200    
RIV   no.    5 value from time series:   103.45     for time:  5.000     to  5.200    
RIV   no.    6 value from time series:   103.45     for time:  5.000     to  5.200    
RIV   no.    7 value from time series:   103.45     for time:  5.000     to  5.200    
RIV   no.    8 value from time series:   103.45     for time:  5.000     to  5.200    
RIV   no.    9 value from time series:   103.45     for time:  5.000     to  5.200    
RIV   no.   10 value from time series:   103.45     for time:  5.000     to  5.200    
EVT   no.    1 value from time series:   1020.9     for time:  5.000     to  5.200    
EVT   no.    2 value from time series:   2041.9     for time:  5.000     to  5.200    
EVT   no.    3 value from time series:   3062.8     for time:  5.000     to  5.200    
EVT   no.    4 value from time series:   4083.8     for time:  5.000     to  5.200    
EVT   no.   10 value from time series:   510.47     for time:  5.000     to  5.200    
EVT   no.   11 value from time series:   1020.9     for time:  5.000     to  5.200    
EVT   no.   12 value from time series:   2041.9     for time:  5.000     to  5.200    
EVT   no.   13 value from time series:   3062.8     for time:  5.000     to  5.200    
EVT   no.   14 value from time series:   4083.8     for time:  5.000     to  5.200    
EVT   no.   20 value from time series:   510.47     for time:  5.000     to  5.200    
WEL   no.    1 value from time series:  -10200.     for time:  5.000     to  5.200    
WEL   no.    2 value from time series:  -30000.     for time:  5.000     to  5.200    
RIV   no.    1 value from time series:   103.45     for time:  5.000     to  5.200    
RIV   no.    2 value from time series:   103.45     for time:  5.000     to  5.200    
RIV   no.    3 value from time series:   103.45     for time:  5.000     to  5.200    
RIV   no.    4 value from time series:   103.45     for time:  5.000     to  5.200    
RIV   no.    5 value from time series:   103.45     for time:  5.000     to  5.200    
RIV   no.    6 value from time series:   103.45     for time:  5.000     to  5.200    
RIV   no.    7 value from time series:   103.45     for time:  5.000     to  5.200    
RIV   no.    8 value from time series:   103.45     for time:  5.000     to  5.200    
RIV   no.    9 value from time series:   103.45     for time:  5.000     to  5.200    
RIV   no.   10 value from time series:   103.45     for time:  5.000     to  5.200    
EVT   no.    1 value from time series:   1020.9     for time:  5.000     to  5.200    
EVT   no.    2 value from time series:   2041.9     for time:  5.000     to  5.200    
EVT   no.    3 value from time series:   3062.8     for time:  5.000     to  5.200    
EVT   no.    4 value from time series:   4083.8     for time:  5.000     to  5.200    
EVT   no.   10 value from time series:   510.47     for time:  5.000     to  5.200    
EVT   no.   11 value from time series:   1020.9     for time:  5.000     to  5.200    
EVT   no.   12 value from time series:   2041.9     for time:  5.000     to  5.200    
EVT   no.   13 value from time series:   3062.8     for time:  5.000     to  5.200    
EVT   no.   14 value from time series:   4083.8     for time:  5.000     to  5.200    
EVT   no.   20 value from time series:   510.47     for time:  5.000     to  5.200    

 OUTPUT CONTROL FOR STRESS PERIOD    4   TIME STEP    1
    SAVE BUDGET
    SAVE HEAD
    SAVE HEAD FOR ALL LAYERS
 UBDSV1 SAVING      STORAGE(SS) ON UNIT   1017 AT TIME STEP      1, STRESS PERIOD      4
 UBDSV1 SAVING      STORAGE(SY) ON UNIT   1017 AT TIME STEP      1, STRESS PERIOD      4
 UBDSV1 SAVING FLOW RIGHT FACE  ON UNIT   1017 AT TIME STEP      1, STRESS PERIOD      4
 UBDSV1 SAVING FLOW FRONT FACE  ON UNIT   1017 AT TIME STEP      1, STRESS PERIOD      4
 UBDSV1 SAVING FLOW LOWER FACE  ON UNIT   1017 AT TIME STEP      1, STRESS PERIOD      4
 UBDSV4 SAVING WELLS NEAR RIVER ON UNIT   1017 AT TIME STEP      1, STRESS PERIOD      4

 WELLS NEAR RIVER   PERIOD  4   STEP  1
 BOUNDARY      1   LAYER   2   ROW     8   COL     4   RATE    -10200.0      WELL_2
 BOUNDARY      2   LAYER   2   ROW     3   COL     4   RATE    -30000.0      WELL_1
 UBDSV4 SAVING RIVER            ON UNIT   1017 AT TIME STEP      1, STRESS PERIOD      4

 RIVER              PERIOD  4   STEP  1
 BOUNDARY      1   LAYER   1   ROW     1   COL    15   RATE     1548.46    
 BOUNDARY      2   LAYER   1   ROW     2   COL    15   RATE     1565.96      RIV2
 BOUNDARY      3   LAYER   1   ROW     3   COL    15   RATE     1592.19      RIV3
 BOUNDARY      4   LAYER   1   ROW     4   COL    15   RATE     1619.52    
 BOUNDARY      5   LAYER   1   ROW     5   COL    15   RATE     1640.78    
 BOUNDARY      6   LAYER   1   ROW     6   COL    15   RATE     1641.42    
 BOUNDARY      7   LAYER   1   ROW     7   COL    15   RATE     1621.03      RIVX
 BOUNDARY      8   LAYER   1   ROW     8   COL    15   RATE     1590.76      RIVX
 BOUNDARY      9   LAYER   1   ROW     9   COL    15   RATE     1559.10      RIVX
 BOUNDARY     10   LAYER   1   ROW    10   COL    15   RATE     1536.49    

 GHB LAKES          PERIOD  4   STEP  1
 BOUNDARY      1   LAYER   1   ROW     3   COL     1   RATE    -7925.74    
 BOUNDARY      2   LAYER   1   ROW     7   COL     1   RATE     4320.24      GHB2_UPPER
 BOUNDARY      3   LAYER   1   ROW     7   COL     1   RATE    -11026.1      GHB2_LOWER
 UBDSV4 SAVING RECHARGE         ON UNIT   1017 AT TIME STEP      1, STRESS PERIOD      4

 RECHARGE           PERIOD  4   STEP  1
 BOUNDARY      2   LAYER   1   ROW     1   COL     2   RATE     750.000    
 BOUNDARY      3   LAYER   1   ROW     1   COL     3   RATE     750.000    
 BOUNDARY      4   LAYER   1   ROW     1   COL     4   RATE     750.000    
 BOUNDARY      5   LAYER   1   ROW     1   COL     5   RATE     750.000    
 BOUNDARY      6   LAYER   1   ROW     1   COL     6   RATE     750.000    
 BOUNDARY      7   LAYER   1   ROW     1   COL     7   RATE     750.000    
 BOUNDARY      8   LAYER   1   ROW     1   COL     8   RATE     750.000    
 BOUNDARY      9   LAYER   1   ROW     1   COL     9   RATE     750.000    
 BOUNDARY     10   LAYER   1   ROW     1   COL    10   RATE     750.000    
 BOUNDARY     11   LAYER   1   ROW     1   COL    11   RATE     750.000    
 BOUNDARY     12   LAYER   1   ROW     1   COL    12   RATE     750.000    
 BOUNDARY     13   LAYER   1   ROW     1   COL    13   RATE     750.000    
 BOUNDARY     14   LAYER   1   ROW     1   COL    14   RATE     750.000    
 BOUNDARY     15   LAYER   1   ROW     1   COL    15   RATE     750.000    
 BOUNDARY     16   LAYER   1   ROW     2   COL     1   RATE     750.000    
 BOUNDARY     17   LAYER   1   ROW     2   COL     2   RATE     750.000    
 BOUNDARY     18   LAYER   1   ROW     2   COL     3   RATE     750.000    
 BOUNDARY     19   LAYER   1   ROW     2   COL     4   RATE     750.000    
 BOUNDARY     20   LAYER   1   ROW     2   COL     5   RATE     750.000    
 BOUNDARY     21   LAYER   1   ROW     2   COL     6   RATE     750.000    
 BOUNDARY     22   LAYER   1   ROW     2   COL     7   RATE     750.000    
 BOUNDARY     23   LAYER   1   ROW     2   COL     8   RATE     750.000    
 BOUNDARY     24   LAYER   1   ROW     2   COL     9   RATE     750.000    
 BOUNDARY     25   LAYER   1   ROW     2   COL    10   RATE     750.000    
 BOUNDARY     26   LAYER   1   ROW     2   COL    11   RATE     750.000    
 BOUNDARY     27   LAYER   1   ROW     2   COL    12   RATE     750.000    
 BOUNDARY     28   LAYER   1   ROW     2   COL    13   RATE     750.000    
 BOUNDARY     29   LAYER   1   ROW     2   COL    14   RATE     750.000    
 BOUNDARY     30   LAYER   1   ROW     2   COL    15   RATE     750.000    
 BOUNDARY     31   LAYER   1   ROW     3   COL     1   RATE     750.000    
 BOUNDARY     32   LAYER   1   ROW     3   COL     2   RATE     750.000    
 BOUNDARY     33   LAYER   1   ROW     3   COL     3   RATE     750.000    
 BOUNDARY     34   LAYER   1   ROW     3   COL     4   RATE     750.000    
 BOUNDARY     35   LAYER   1   ROW     3   COL     5   RATE     750.000    
 BOUNDARY     36   LAYER   1   ROW     3   COL     6   RATE     750.000    
 BOUNDARY     37   LAYER   1   ROW     3   COL     7   RATE     750.000    
 BOUNDARY     38   LAYER   1   ROW     3   COL     8   RATE     750.000    
 BOUNDARY     39   LAYER   1   ROW     3   COL     9   RATE     750.000    
 BOUNDARY     40   LAYER   1   ROW     3   COL    10   RATE     750.000    
 BOUNDARY     41   LAYER   1   ROW     3   COL    11   RATE     750.000    
 BOUNDARY     42   LAYER   1   ROW     3   COL    12   RATE     750.000    
 BOUNDARY     43   LAYER   1   ROW     3   COL    13   RATE     750.000    
 BOUNDARY     44   LAYER   1   ROW     3   COL    14   RATE     750.000    
 BOUNDARY     45   LAYER   1   ROW     3   COL    15   RATE     750.000    
 BOUNDARY     47   LAYER   1   ROW     4   COL     2   RATE     750.000    
 BOUNDARY     48   LAYER   1   ROW     4   COL     3   RATE     750.000    
 BOUNDARY     49   LAYER   1   ROW     4   COL     4   RATE     750.000    
 BOUNDARY     50   LAYER   1   ROW     4   COL     5   RATE     750.000    
 BOUNDARY     51   LAYER   1   ROW     4   COL     6   RATE     750.000    
 BOUNDARY     52   LAYER   1   ROW     4   COL     7   RATE     750.000    
 BOUNDARY     53   LAYER   1   ROW     4   COL     8   RATE     750.000    
 BOUNDARY     54   LAYER   1   ROW     4   COL     9   RATE     750.000    
 BOUNDARY     55   LAYER   1   ROW     4   COL    10   RATE     750.000    
 BOUNDARY     56   LAYER   1   ROW     4   COL    11   RATE     750.000    
 BOUNDARY     57   LAYER   1   ROW     4   COL    12   RATE     750.000    
 BOUNDARY     58   LAYER   1   ROW     4   COL    13   RATE     750.000    
 BOUNDARY     59   LAYER   1   ROW     4   COL    14   RATE     750.000    
 BOUNDARY     60   LAYER   1   ROW     4   COL    15   RATE     750.000    
 BOUNDARY     62   LAYER   1   ROW     5   COL     2   RATE     750.000    
 BOUNDARY     63   LAYER   1   ROW     5   COL     3   RATE     750.000    
 BOUNDARY     64   LAYER   1   ROW     5   COL     4   RATE     750.000    
 BOUNDARY     65   LAYER   1   ROW     5   COL     5   RATE     750.000    
 BOUNDARY     66   LAYER   1   ROW     5   COL     6   RATE     750.000    
 BOUNDARY     67   LAYER   1   ROW     5   COL     7   RATE     750.000    
 BOUNDARY     68   LAYER   1   ROW     5   COL     8   RATE     750.000    
 BOUNDARY     69   LAYER   1   ROW     5   COL     9   RATE     750.000    
 BOUNDARY     70   LAYER   1   ROW     5   COL    10   RATE     750.000    
 BOUNDARY     71   LAYER   1   ROW     5   COL    11   RATE     750.000    
 BOUNDARY     72   LAYER   1   ROW     5   COL    12   RATE     750.000    
 BOUNDARY     73   LAYER   1   ROW     5   COL    13   RATE     750.000    
 BOUNDARY     74   LAYER   1   ROW     5   COL    14   RATE     750.000    
 BOUNDARY     75   LAYER   1   ROW     5   COL    15   RATE     750.000    
 BOUNDARY     77   LAYER   1   ROW     6   COL     2   RATE     750.000    
 BOUNDARY     78   LAYER   1   ROW     6   COL     3   RATE     750.000    
 BOUNDARY     79   LAYER   1   ROW     6   COL     4   RATE     750.000    
 BOUNDARY     80   LAYER   1   ROW     6   COL     5   RATE     750.000    
 BOUNDARY     81   LAYER   1   ROW     6   COL     6   RATE     750.000    
 BOUNDARY     82   LAYER   1   ROW     6   COL     7   RATE     750.000    
 BOUNDARY     83   LAYER   1   ROW     6   COL     8   RATE     750.000    
 BOUNDARY     84   LAYER   1   ROW     6   COL     9   RATE     750.000    
 BOUNDARY     85   LAYER   1   ROW     6   COL    10   RATE     750.000    
 BOUNDARY     86   LAYER   1   ROW     6   COL    11   RATE     750.000    
 BOUNDARY     87   LAYER   1   ROW     6   COL    12   RATE     750.000    
 BOUNDARY     88   LAYER   1   ROW     6   COL    13   RATE     750.000    
 BOUNDARY     89   LAYER   1   ROW     6   COL    14   RATE     750.000    
 BOUNDARY     90   LAYER   1   ROW     6   COL    15   RATE     750.000    
 BOUNDARY     91   LAYER   1   ROW     7   COL     1   RATE     750.000    
 BOUNDARY     92   LAYER   1   ROW     7   COL     2   RATE     750.000    
 BOUNDARY     93   LAYER   1   ROW     7   COL     3   RATE     750.000    
 BOUNDARY     94   LAYER   1   ROW     7   COL     4   RATE     750.000    
 BOUNDARY     95   LAYER   1   ROW     7   COL     5   RATE     750.000    
 BOUNDARY     96   LAYER   1   ROW     7   COL     6   RATE     750.000    
 BOUNDARY     97   LAYER   1   ROW     7   COL     7   RATE     750.000    
 BOUNDARY     98   LAYER   1   ROW     7   COL     8   RATE     750.000    
 BOUNDARY     99   LAYER   1   ROW     7   COL     9   RATE     750.000    
 BOUNDARY    100   LAYER   1   ROW     7   COL    10   RATE     750.000    
 BOUNDARY    101   LAYER   1   ROW     7   COL    11   RATE     750.000    
 BOUNDARY    102   LAYER   1   ROW     7   COL    12   RATE     750.000    
 BOUNDARY    103   LAYER   1   ROW     7   COL    13   RATE     750.000    
 BOUNDARY    104   LAYER   1   ROW     7   COL    14   RATE     750.000    
 BOUNDARY    105   LAYER   1   ROW     7   COL    15   RATE     750.000    
 BOUNDARY    106   LAYER   1   ROW     8   COL     1   RATE     750.000    
 BOUNDARY    107   LAYER   1   ROW     8   COL     2   RATE     750.000    
 BOUNDARY    108   LAYER   1   ROW     8   COL     3   RATE     750.000    
 BOUNDARY    109   LAYER   1   ROW     8   COL     4   RATE     750.000    
 BOUNDARY    110   LAYER   1   ROW     8   COL     5   RATE     750.000    
 BOUNDARY    111   LAYER   1   ROW     8   COL     6   RATE     750.000    
 BOUNDARY    112   LAYER   1   ROW     8   COL     7   RATE     750.000    
 BOUNDARY    113   LAYER   1   ROW     8   COL     8   RATE     750.000    
 BOUNDARY    114   LAYER   1   ROW     8   COL     9   RATE     750.000    
 BOUNDARY    115   LAYER   1   ROW     8   COL    10   RATE     750.000    
 BOUNDARY    116   LAYER   1   ROW     8   COL    11   RATE     750.000    
 BOUNDARY    117   LAYER   1   ROW     8   COL    12   RATE     750.000    
 BOUNDARY    118   LAYER   1   ROW     8   COL    13   RATE     750.000    
 BOUNDARY    119   LAYER   1   ROW     8   COL    14   RATE     750.000    
 BOUNDARY    120   LAYER   1   ROW     8   COL    15   RATE     750.000    
 BOUNDARY    121   LAYER   1   ROW     9   COL     1   RATE     750.000    
 BOUNDARY    122   LAYER   1   ROW     9   COL     2   RATE     750.000    
 BOUNDARY    123   LAYER   1   ROW     9   COL     3   RATE     750.000    
 BOUNDARY    124   LAYER   1   ROW     9   COL     4   RATE     750.000    
 BOUNDARY    125   LAYER   1   ROW     9   COL     5   RATE     750.000    
 BOUNDARY    126   LAYER   1   ROW     9   COL     6   RATE     750.000    
 BOUNDARY    127   LAYER   1   ROW     9   COL     7   RATE     750.000    
 BOUNDARY    128   LAYER   1   ROW     9   COL     8   RATE     750.000    
 BOUNDARY    129   LAYER   1   ROW     9   COL     9   RATE     750.000    
 BOUNDARY    130   LAYER   1   ROW     9   COL    10   RATE     750.000    
 BOUNDARY    131   LAYER   1   ROW     9   COL    11   RATE     750.000    
 BOUNDARY    132   LAYER   1   ROW     9   COL    12   RATE     750.000    
 BOUNDARY    133   LAYER   1   ROW     9   COL    13   RATE     750.000    
 BOUNDARY    134   LAYER   1   ROW     9   COL    14   RATE     750.000    
 BOUNDARY    135   LAYER   1   ROW     9   COL    15   RATE     750.000    
 BOUNDARY    137   LAYER   1   ROW    10   COL     2   RATE     750.000    
 BOUNDARY    138   LAYER   1   ROW    10   COL     3   RATE     750.000    
 BOUNDARY    139   LAYER   1   ROW    10   COL     4   RATE     750.000    
 BOUNDARY    140   LAYER   1   ROW    10   COL     5   RATE     750.000    
 BOUNDARY    141   LAYER   1   ROW    10   COL     6   RATE     750.000    
 BOUNDARY    142   LAYER   1   ROW    10   COL     7   RATE     750.000    
 BOUNDARY    143   LAYER   1   ROW    10   COL     8   RATE     750.000    
 BOUNDARY    144   LAYER   1   ROW    10   COL     9   RATE     750.000    
 BOUNDARY    145   LAYER   1   ROW    10   COL    10   RATE     750.000    
 BOUNDARY    146   LAYER   1   ROW    10   COL    11   RATE     750.000    
 BOUNDARY    147   LAYER   1   ROW    10   COL    12   RATE     750.000    
 BOUNDARY    148   LAYER   1   ROW    10   COL    13   RATE     750.000    
 BOUNDARY    149   LAYER   1   ROW    10   COL    14   RATE     750.000    
 BOUNDARY    150   LAYER   1   ROW    10   COL    15   RATE     750.000    
 UBDSV4 SAVING ET SEGS          ON UNIT   1017 AT TIME STEP      1, STRESS PERIOD      4

 ET SEGS            PERIOD  4   STEP  1
 BOUNDARY      1   LAYER   1   ROW     1   COL    13   RATE    -79.9068      ET-1
 BOUNDARY      2   LAYER   1   ROW     2   COL    13   RATE    -151.216      ET-2
 BOUNDARY      3   LAYER   1   ROW     3   COL    13   RATE    -209.277      ET-3
 BOUNDARY      4   LAYER   1   ROW     4   COL    13   RATE    -254.895      ET-4
 BOUNDARY      5   LAYER   1   ROW     5   COL    13   RATE    -284.318      ET-5
 BOUNDARY      6   LAYER   1   ROW     6   COL    13   RATE    -283.457      ET-6
 BOUNDARY      7   LAYER   1   ROW     7   COL    13   RATE    -216.150      ET-7
 BOUNDARY      8   LAYER   1   ROW     8   COL    13   RATE    -170.877      ET-8
 BOUNDARY      9   LAYER   1   ROW     9   COL    13   RATE    -113.060      ET-9
 BOUNDARY     10   LAYER   1   ROW    10   COL    13   RATE    -41.3572      ET-10
 BOUNDARY     11   LAYER   1   ROW     1   COL    12   RATE    -125.525      ET-1
 BOUNDARY     12   LAYER   1   ROW     2   COL    12   RATE    -219.253      ET-2
 BOUNDARY     13   LAYER   1   ROW     3   COL    12   RATE    -293.223      ET-3
 BOUNDARY     14   LAYER   1   ROW     4   COL    12   RATE    -363.339      ET-4
 BOUNDARY     15   LAYER   1   ROW     5   COL    12   RATE    -412.008      ET-5
 BOUNDARY     16   LAYER   1   ROW     6   COL    12   RATE    -411.114      ET-6
 BOUNDARY     17   LAYER   1   ROW     7   COL    12   RATE    -308.806      ET-7
 BOUNDARY     18   LAYER   1   ROW     8   COL    12   RATE    -239.519      ET-8
 BOUNDARY     19   LAYER   1   ROW     9   COL    12   RATE    -168.563      ET-9
 BOUNDARY     20   LAYER   1   ROW    10   COL    12   RATE    -68.2773      ET-10
 UBDSV4 SAVING CONSTANT HEADS   ON UNIT   1017 AT TIME STEP      1, STRESS PERIOD      4

 CONSTANT HEADS     PERIOD  4   STEP  1
 BOUNDARY      1   LAYER   1   ROW     1   COL     1   RATE     2626.10      CHD-1
 BOUNDARY      2   LAYER   1   ROW     4   COL     1   RATE     4710.82    
 BOUNDARY      3   LAYER   1   ROW     5   COL     1   RATE     831.299      CHD_GP
 BOUNDARY      4   LAYER   1   ROW     6   COL     1   RATE     4304.27      CHD_GP
 BOUNDARY      5   LAYER   1   ROW    10   COL     1   RATE     1756.14      CHD-10

 HEAD WILL BE SAVED ON UNIT 1018 AT END OF TIME STEP    1, STRESS PERIOD    4
WEL   no.    1 value from time series:  -10600.     for time:  5.200     to  5.400    
WEL   no.    2 value from time series:  -30000.     for time:  5.200     to  5.400    
RIV   no.    1 value from time series:   103.35     for time:  5.200     to  5.400    
RIV   no.    2 value from time series:   103.35     for time:  5.200     to  5.400    
RIV   no.    3 value from time series:   103.35     for time:  5.200     to  5.400    
RIV   no.    4 value from time series:   103.35     for time:  5.200     to  5.400    
RIV   no.    5 value from time series:   103.35     for time:  5.200     to  5.400    
RIV   no.    6 value from time series:   103.35     for time:  5.200     to  5.400    
RIV   no.    7 value from time series:   103.35     for time:  5.200     to  5.400    
RIV   no.    8 value from time series:   103.35     for time:  5.200     to  5.400    
RIV   no.    9 value from time series:   103.35     for time:  5.200     to  5.400    
RIV   no.   10 value from time series:   103.35     for time:  5.200     to  5.400    
EVT   no.    1 value from time series:   1037.8     for time:  5.200     to  5.400    
EVT   no.    2 value from time series:   2075.6     for time:  5.200     to  5.400    
EVT   no.    3 value from time series:   3113.4     for time:  5.200     to  5.400    
EVT   no.    4 value from time series:   4151.3     for time:  5.200     to  5.400    
EVT   no.   10 value from time series:   518.91     for time:  5.200     to  5.400    
EVT   no.   11 value from time series:   1037.8     for time:  5.200     to  5.400    
EVT   no.   12 value from time series:   2075.6     for time:  5.200     to  5.400    
EVT   no.   13 value from time series:   3113.4     for time:  5.200     to  5.400    
EVT   no.   14 value from time series:   4151.3     for time:  5.200     to  5.400    
EVT   no.   20 value from time series:   518.91     for time:  5.200     to  5.400    
WEL   no.    1 value from time series:  -10600.     for time:  5.200     to  5.400    
WEL   no.    2 value from time series:  -30000.     for time:  5.200     to  5.400    
RIV   no.    1 value from time series:   103.35     for time:  5.200     to  5.400    
RIV   no.    2 value from time series:   103.35     for time:  5.200     to  5.400    
RIV   no.    3 value from time series:   103.35     for time:  5.200     to  5.400    
RIV   no.    4 value from time series:   103.35     for time:  5.200     to  5.400    
RIV   no.    5 value from time series:   103.35     for time:  5.200     to  5.400    
RIV   no.    6 value from time series:   103.35     for time:  5.200     to  5.400    
RIV   no.    7 value from time series:   103.35     for time:  5.200     to  5.400    
RIV   no.    8 value from time series:   103.35     for time:  5.200     to  5.400    
RIV   no.    9 value from time series:   103.35     for time:  5.200     to  5.400    
RIV   no.   10 value from time series:   103.35     for time:  5.200     to  5.400    
EVT   no.    1 value from time series:   1037.8     for time:  5.200     to  5.400    
EVT   no.    2 value from time series:   2075.6     for time:  5.200     to  5.400    
EVT   no.    3 value from time series:   3113.4     for time:  5.200     to  5.400    
EVT   no.    4 value from time series:   4151.3     for time:  5.200     to  5.400    
EVT   no.   10 value from time series:   518.91     for time:  5.200     to  5.400    
EVT   no.   11 value from time series:   1037.8     for time:  5.200     to  5.400    
EVT   no.   12 value from time series:   2075.6     for time:  5.200     to  5.400    
EVT   no.   13 value from time series:   3113.4     for time:  5.200     to  5.400    
EVT   no.   14 value from time series:   4151.3     for time:  5.200     to  5.400    
EVT   no.   20 value from time series:   518.91     for time:  5.200     to  5.400    

 OUTPUT CONTROL FOR STRESS PERIOD    4   TIME STEP    2
    SAVE BUDGET
    SAVE HEAD
    SAVE HEAD FOR ALL LAYERS
 UBDSV1 SAVING      STORAGE(SS) ON UNIT   1017 AT TIME STEP      2, STRESS PERIOD      4
 UBDSV1 SAVING      STORAGE(SY) ON UNIT   1017 AT TIME STEP      2, STRESS PERIOD      4
 UBDSV1 SAVING FLOW RIGHT FACE  ON UNIT   1017 AT TIME STEP      2, STRESS PERIOD      4
 UBDSV1 SAVING FLOW FRONT FACE  ON UNIT   1017 AT TIME STEP      2, STRESS PERIOD      4
 UBDSV1 SAVING FLOW LOWER FACE  ON UNIT   1017 AT TIME STEP      2, STRESS PERIOD      4
 UBDSV4 SAVING WELLS NEAR RIVER ON UNIT   1017 AT TIME STEP      2, STRESS PERIOD      4

 WELLS NEAR RIVER   PERIOD  4   STEP  2
 BOUNDARY      1   LAYER   2   ROW     8   COL     4   RATE    -10600.0      WELL_2
 BOUNDARY      2   LAYER   2   ROW     3   COL     4   RATE    -30000.0      WELL_1
 UBDSV4 SAVING RIVER            ON UNIT   1017 AT TIME STEP      2, STRESS PERIOD      4

 RIVER              PERIOD  4   STEP  2
 BOUNDARY      1   LAYER   1   ROW     1   COL    15   RATE     459.487    
 BOUNDARY      2   LAYER   1   ROW     2   COL    15   RATE     476.979      RIV2
 BOUNDARY      3   LAYER   1   ROW     3   COL    15   RATE     503.194      RIV3
 BOUNDARY      4   LAYER   1   ROW     4   COL    15   RATE     530.508    
 BOUNDARY      5   LAYER   1   ROW     5   COL    15   RATE     551.747    
 BOUNDARY      6   LAYER   1   ROW     6   COL    15   RATE     552.393    
 BOUNDARY      7   LAYER   1   ROW     7   COL    15   RATE     532.016      RIVX
 BOUNDARY      8   LAYER   1   ROW     8   COL    15   RATE     501.769      RIVX
 BOUNDARY      9   LAYER   1   ROW     9   COL    15   RATE     470.134      RIVX
 BOUNDARY     10   LAYER   1   ROW    10   COL    15   RATE     447.527    

 GHB LAKES          PERIOD  4   STEP  2
 BOUNDARY      1   LAYER   1   ROW     3   COL     1   RATE    -7931.31    
 BOUNDARY      2   LAYER   1   ROW     7   COL     1   RATE     4315.30      GHB2_UPPER
 BOUNDARY      3   LAYER   1   ROW     7   COL     1   RATE    -11027.9      GHB2_LOWER
 UBDSV4 SAVING RECHARGE         ON UNIT   1017 AT TIME STEP      2, STRESS PERIOD      4

 RECHARGE           PERIOD  4   STEP  2
 BOUNDARY      2   LAYER   1   ROW     1   COL     2   RATE     750.000    
 BOUNDARY      3   LAYER   1   ROW     1   COL     3   RATE     750.000    
 BOUNDARY      4   LAYER   1   ROW     1   COL     4   RATE     750.000    
 BOUNDARY      5   LAYER   1   ROW     1   COL     5   RATE     750.000    
 BOUNDARY      6   LAYER   1   ROW     1   COL     6   RATE     750.000    
 BOUNDARY      7   LAYER   1   ROW     1   COL     7   RATE     750.000    
 BOUNDARY      8   LAYER   1   ROW     1   COL     8   RATE     750.000    
 BOUNDARY      9   LAYER   1   ROW     1   COL     9   RATE     750.000    
 BOUNDARY     10   LAYER   1   ROW     1   COL    10   RATE     750.000    
 BOUNDARY     11   LAYER   1   ROW     1   COL    11   RATE     750.000    
 BOUNDARY     12   LAYER   1   ROW     1   COL    12   RATE     750.000    
 BOUNDARY     13   LAYER   1   ROW     1   COL    13   RATE     750.000    
 BOUNDARY     14   LAYER   1   ROW     1   COL    14   RATE     750.000    
 BOUNDARY     15   LAYER   1   ROW     1   COL    15   RATE     750.000    
 BOUNDARY     16   LAYER   1   ROW     2   COL     1   RATE     750.000    
 BOUNDARY     17   LAYER   1   ROW     2   COL     2   RATE     750.000    
 BOUNDARY     18   LAYER   1   ROW     2   COL     3   RATE     750.000    
 BOUNDARY     19   LAYER   1   ROW     2   COL     4   RATE     750.000    
 BOUNDARY     20   LAYER   1   ROW     2   COL     5   RATE     750.000    
 BOUNDARY     21   LAYER   1   ROW     2   COL     6   RATE     750.000    
 BOUNDARY     22   LAYER   1   ROW     2   COL     7   RATE     750.000    
 BOUNDARY     23   LAYER   1   ROW     2   COL     8   RATE     750.000    
 BOUNDARY     24   LAYER   1   ROW     2   COL     9   RATE     750.000    
 BOUNDARY     25   LAYER   1   ROW     2   COL    10   RATE     750.000    
 BOUNDARY     26   LAYER   1   ROW     2   COL    11   RATE     750.000    
 BOUNDARY     27   LAYER   1   ROW     2   COL    12   RATE     750.000    
 BOUNDARY     28   LAYER   1   ROW     2   COL    13   RATE     750.000    
 BOUNDARY     29   LAYER   1   ROW     2   COL    14   RATE     750.000    
 BOUNDARY     30   LAYER   1   ROW     2   COL    15   RATE     750.000    
 BOUNDARY     31   LAYER   1   ROW     3   COL     1   RATE     750.000    
 BOUNDARY     32   LAYER   1   ROW     3   COL     2   RATE     750.000    
 BOUNDARY     33   LAYER   1   ROW     3   COL     3   RATE     750.000    
 BOUNDARY     34   LAYER   1   ROW     3   COL     4   RATE     750.000    
 BOUNDARY     35   LAYER   1   ROW     3   COL     5   RATE     750.000    
 BOUNDARY     36   LAYER   1   ROW     3   COL     6   RATE     750.000    
 BOUNDARY     37   LAYER   1   ROW     3   COL     7   RATE     750.000    
 BOUNDARY     38   LAYER   1   ROW     3   COL     8   RATE     750.000    
 BOUNDARY     39   LAYER   1   ROW     3   COL     9   RATE     750.000    
 BOUNDARY     40   LAYER   1   ROW     3   COL    10   RATE     750.000    
 BOUNDARY     41   LAYER   1   ROW     3   COL    11   RATE     750.000    
 BOUNDARY     42   LAYER   1   ROW     3   COL    12   RATE     750.000    
 BOUNDARY     43   LAYER   1   ROW     3   COL    13   RATE     750.000    
 BOUNDARY     44   LAYER   1   ROW     3   COL    14   RATE     750.000    
 BOUNDARY     45   LAYER   1   ROW     3   COL    15   RATE     750.000    
 BOUNDARY     47   LAYER   1   ROW     4   COL     2   RATE     750.000    
 BOUNDARY     48   LAYER   1   ROW     4   COL     3   RATE     750.000    
 BOUNDARY     49   LAYER   1   ROW     4   COL     4   RATE     750.000    
 BOUNDARY     50   LAYER   1   ROW     4   COL     5   RATE     750.000    
 BOUNDARY     51   LAYER   1   ROW     4   COL     6   RATE     750.000    
 BOUNDARY     52   LAYER   1   ROW     4   COL     7   RATE     750.000    
 BOUNDARY     53   LAYER   1   ROW     4   COL     8   RATE     750.000    
 BOUNDARY     54   LAYER   1   ROW     4   COL     9   RATE     750.000    
 BOUNDARY     55   LAYER   1   ROW     4   COL    10   RATE     750.000    
 BOUNDARY     56   LAYER   1   ROW     4   COL    11   RATE     750.000    
 BOUNDARY     57   LAYER   1   ROW     4   COL    12   RATE     750.000    
 BOUNDARY     58   LAYER   1   ROW     4   COL    13   RATE     750.000    
 BOUNDARY     59   LAYER   1   ROW     4   COL    14   RATE     750.000    
 BOUNDARY     60   LAYER   1   ROW     4   COL    15   RATE     750.000    
 BOUNDARY     62   LAYER   1   ROW     5   COL     2   RATE     750.000    
 BOUNDARY     63   LAYER   1   ROW     5   COL     3   RATE     750.000    
 BOUNDARY     64   LAYER   1   ROW     5   COL     4   RATE     750.000    
 BOUNDARY     65   LAYER   1   ROW     5   COL     5   RATE     750.000    
 BOUNDARY     66   LAYER   1   ROW     5   COL     6   RATE     750.000    
 BOUNDARY     67   LAYER   1   ROW     5   COL     7   RATE     750.000    
 BOUNDARY     68   LAYER   1   ROW     5   COL     8   RATE     750.000    
 BOUNDARY     69   LAYER   1   ROW     5   COL     9   RATE     750.000    
 BOUNDARY     70   LAYER   1   ROW     5   COL    10   RATE     750.000    
 BOUNDARY     71   LAYER   1   ROW     5   COL    11   RATE     750.000    
 BOUNDARY     72   LAYER   1   ROW     5   COL    12   RATE     750.000    
 BOUNDARY     73   LAYER   1   ROW     5   COL    13   RATE     750.000    
 BOUNDARY     74   LAYER   1   ROW     5   COL    14   RATE     750.000    
 BOUNDARY     75   LAYER   1   ROW     5   COL    15   RATE     750.000    
 BOUNDARY     77   LAYER   1   ROW     6   COL     2   RATE     750.000    
 BOUNDARY     78   LAYER   1   ROW     6   COL     3   RATE     750.000    
 BOUNDARY     79   LAYER   1   ROW     6   COL     4   RATE     750.000    
 BOUNDARY     80   LAYER   1   ROW     6   COL     5   RATE     750.000    
 BOUNDARY     81   LAYER   1   ROW     6   COL     6   RATE     750.000    
 BOUNDARY     82   LAYER   1   ROW     6   COL     7   RATE     750.000    
 BOUNDARY     83   LAYER   1   ROW     6   COL     8   RATE     750.000    
 BOUNDARY     84   LAYER   1   ROW     6   COL     9   RATE     750.000    
 BOUNDARY     85   LAYER   1   ROW     6   COL    10   RATE     750.000    
 BOUNDARY     86   LAYER   1   ROW     6   COL    11   RATE     750.000    
 BOUNDARY     87   LAYER   1   ROW     6   COL    12   RATE     750.000    
 BOUNDARY     88   LAYER   1   ROW     6   COL    13   RATE     750.000    
 BOUNDARY     89   LAYER   1   ROW     6   COL    14   RATE     750.000    
 BOUNDARY     90   LAYER   1   ROW     6   COL    15   RATE     750.000    
 BOUNDARY     91   LAYER   1   ROW     7   COL     1   RATE     750.000    
 BOUNDARY     92   LAYER   1   ROW     7   COL     2   RATE     750.000    
 BOUNDARY     93   LAYER   1   ROW     7   COL     3   RATE     750.000    
 BOUNDARY     94   LAYER   1   ROW     7   COL     4   RATE     750.000    
 BOUNDARY     95   LAYER   1   ROW     7   COL     5   RATE     750.000    
 BOUNDARY     96   LAYER   1   ROW     7   COL     6   RATE     750.000    
 BOUNDARY     97   LAYER   1   ROW     7   COL     7   RATE     750.000    
 BOUNDARY     98   LAYER   1   ROW     7   COL     8   RATE     750.000    
 BOUNDARY     99   LAYER   1   ROW     7   COL     9   RATE     750.000    
 BOUNDARY    100   LAYER   1   ROW     7   COL    10   RATE     750.000    
 BOUNDARY    101   LAYER   1   ROW     7   COL    11   RATE     750.000    
 BOUNDARY    102   LAYER   1   ROW     7   COL    12   RATE     750.000    
 BOUNDARY    103   LAYER   1   ROW     7   COL    13   RATE     750.000    
 BOUNDARY    104   LAYER   1   ROW     7   COL    14   RATE     750.000    
 BOUNDARY    105   LAYER   1   ROW     7   COL    15   RATE     750.000    
 BOUNDARY    106   LAYER   1   ROW     8   COL     1   RATE     750.000    
 BOUNDARY    107   LAYER   1   ROW     8   COL     2   RATE     750.000    
 BOUNDARY    108   LAYER   1   ROW     8   COL     3   RATE     750.000    
 BOUNDARY    109   LAYER   1   ROW     8   COL     4   RATE     750.000    
 BOUNDARY    110   LAYER   1   ROW     8   COL     5   RATE     750.000    
 BOUNDARY    111   LAYER   1   ROW     8   COL     6   RATE     750.000    
 BOUNDARY    112   LAYER   1   ROW     8   COL     7   RATE     750.000    
 BOUNDARY    113   LAYER   1   ROW     8   COL     8   RATE     750.000    
 BOUNDARY    114   LAYER   1   ROW     8   COL     9   RATE     750.000    
 BOUNDARY    115   LAYER   1   ROW     8   COL    10   RATE     750.000    
 BOUNDARY    116   LAYER   1   ROW     8   COL    11   RATE     750.000    
 BOUNDARY    117   LAYER   1   ROW     8   COL    12   RATE     750.000    
 BOUNDARY    118   LAYER   1   ROW     8   COL    13   RATE     750.000    
 BOUNDARY    119   LAYER   1   ROW     8   COL    14   RATE     750.000    
 BOUNDARY    120   LAYER   1   ROW     8   COL    15   RATE     750.000    
 BOUNDARY    121   LAYER   1   ROW     9   COL     1   RATE     750.000    
 BOUNDARY    122   LAYER   1   ROW     9   COL     2   RATE     750.000    
 BOUNDARY    123   LAYER   1   ROW     9   COL     3   RATE     750.000    
 BOUNDARY    124   LAYER   1   ROW     9   COL     4   RATE     750.000    
 BOUNDARY    125   LAYER   1   ROW     9   COL     5   RATE     750.000    
 BOUNDARY    126   LAYER   1   ROW     9   COL     6   RATE     750.000    
 BOUNDARY    127   LAYER   1   ROW     9   COL     7   RATE     750.000    
 BOUNDARY    128   LAYER   1   ROW     9   COL     8   RATE     750.000    
 BOUNDARY    129   LAYER   1   ROW     9   COL     9   RATE     750.000    
 BOUNDARY    130   LAYER   1   ROW     9   COL    10   RATE     750.000    
 BOUNDARY    131   LAYER   1   ROW     9   COL    11   RATE     750.000    
 BOUNDARY    132   LAYER   1   ROW     9   COL    12   RATE     750.000    
 BOUNDARY    133   LAYER   1   ROW     9   COL    13   RATE     750.000    
 BOUNDARY    134   LAYER   1   ROW     9   COL    14   RATE     750.000    
 BOUNDARY    135   LAYER   1   ROW     9   COL    15   RATE     750.000    
 BOUNDARY    137   LAYER   1   ROW    10   COL     2   RATE     750.000    
 BOUNDARY    138   LAYER   1   ROW    10   COL     3   RATE     750.000    
 BOUNDARY    139   LAYER   1   ROW    10   COL     4   RATE     750.000    
 BOUNDARY    140   LAYER   1   ROW    10   COL     5   RATE     750.000    
 BOUNDARY    141   LAYER   1   ROW    10   COL     6   RATE     750.000    
 BOUNDARY    142   LAYER   1   ROW    10   COL     7   RATE     750.000    
 BOUNDARY    143   LAYER   1   ROW    10   COL     8   RATE     750.000    
 BOUNDARY    144   LAYER   1   ROW    10   COL     9   RATE     750.000    
 BOUNDARY    145   LAYER   1   ROW    10   COL    10   RATE     750.000    
 BOUNDARY    146   LAYER   1   ROW    10   COL    11   RATE     750.000    
 BOUNDARY    147   LAYER   1   ROW    10   COL    12   RATE     750.000    
 BOUNDARY    148   LAYER   1   ROW    10   COL    13   RATE     750.000    
 BOUNDARY    149   LAYER   1   ROW    10   COL    14   RATE     750.000    
 BOUNDARY    150   LAYER   1   ROW    10   COL    15   RATE     750.000    
 UBDSV4 SAVING ET SEGS          ON UNIT   1017 AT TIME STEP      2, STRESS PERIOD      4

 ET SEGS            PERIOD  4   STEP  2
 BOUNDARY      1   LAYER   1   ROW     1   COL    13   RATE    -81.3422      ET-1
 BOUNDARY      2   LAYER   1   ROW     2   COL    13   RATE    -153.939      ET-2
 BOUNDARY      3   LAYER   1   ROW     3   COL    13   RATE    -213.063      ET-3
 BOUNDARY      4   LAYER   1   ROW     4   COL    13   RATE    -259.536      ET-4
 BOUNDARY      5   LAYER   1   ROW     5   COL    13   RATE    -284.879      ET-5
 BOUNDARY      6   LAYER   1   ROW     6   COL    13   RATE    -284.018      ET-6
 BOUNDARY      7   LAYER   1   ROW     7   COL    13   RATE    -216.544      ET-7
 BOUNDARY      8   LAYER   1   ROW     8   COL    13   RATE    -171.160      ET-8
 BOUNDARY      9   LAYER   1   ROW     9   COL    13   RATE    -113.230      ET-9
 BOUNDARY     10   LAYER   1   ROW    10   COL    13   RATE    -42.0989      ET-10
 BOUNDARY     11   LAYER   1   ROW     1   COL    12   RATE    -127.967      ET-1
 BOUNDARY     12   LAYER   1   ROW     2   COL    12   RATE    -223.580      ET-2
 BOUNDARY     13   LAYER   1   ROW     3   COL    12   RATE    -298.380      ET-3
 BOUNDARY     14   LAYER   1   ROW     4   COL    12   RATE    -369.747      ET-4
 BOUNDARY     15   LAYER   1   ROW     5   COL    12   RATE    -412.558      ET-5
 BOUNDARY     16   LAYER   1   ROW     6   COL    12   RATE    -411.665      ET-6
 BOUNDARY     17   LAYER   1   ROW     7   COL    12   RATE    -309.194      ET-7
 BOUNDARY     18   LAYER   1   ROW     8   COL    12   RATE    -239.797      ET-8
 BOUNDARY     19   LAYER   1   ROW     9   COL    12   RATE    -169.113      ET-9
 BOUNDARY     20   LAYER   1   ROW    10   COL    12   RATE    -69.5940      ET-10
 UBDSV4 SAVING CONSTANT HEADS   ON UNIT   1017 AT TIME STEP      2, STRESS PERIOD      4

 CONSTANT HEADS     PERIOD  4   STEP  2
 BOUNDARY      1   LAYER   1   ROW     1   COL     1   RATE     2626.24      CHD-1
 BOUNDARY      2   LAYER   1   ROW     4   COL     1   RATE     4711.65    
 BOUNDARY      3   LAYER   1   ROW     5   COL     1   RATE     832.088      CHD_GP
 BOUNDARY      4   LAYER   1   ROW     6   COL     1   RATE     4303.89      CHD_GP
 BOUNDARY      5   LAYER   1   ROW    10   COL     1   RATE     1754.53      CHD-10

 HEAD WILL BE SAVED ON UNIT 1018 AT END OF TIME STEP    2, STRESS PERIOD    4
WEL   no.    1 value from time series:  -11000.     for time:  5.400     to  5.600    
WEL   no.    2 value from time series:  -30000.     for time:  5.400     to  5.600    
RIV   no.    1 value from time series:   103.25     for time:  5.400     to  5.600    
RIV   no.    2 value from time series:   103.25     for time:  5.400     to  5.600    
RIV   no.    3 value from time series:   103.25     for time:  5.400     to  5.600    
RIV   no.    4 value from time series:   103.25     for time:  5.400     to  5.600    
RIV   no.    5 value from time series:   103.25     for time:  5.400     to  5.600    
RIV   no.    6 value from time series:   103.25     for time:  5.400     to  5.600    
RIV   no.    7 value from time series:   103.25     for time:  5.400     to  5.600    
RIV   no.    8 value from time series:   103.25     for time:  5.400     to  5.600    
RIV   no.    9 value from time series:   103.25     for time:  5.400     to  5.600    
RIV   no.   10 value from time series:   103.25     for time:  5.400     to  5.600    
EVT   no.    1 value from time series:   1054.7     for time:  5.400     to  5.600    
EVT   no.    2 value from time series:   2109.4     for time:  5.400     to  5.600    
EVT   no.    3 value from time series:   3164.1     for time:  5.400     to  5.600    
EVT   no.    4 value from time series:   4218.8     for time:  5.400     to  5.600    
EVT   no.   10 value from time series:   527.34     for time:  5.400     to  5.600    
EVT   no.   11 value from time series:   1054.7     for time:  5.400     to  5.600    
EVT   no.   12 value from time series:   2109.4     for time:  5.400     to  5.600    
EVT   no.   13 value from time series:   3164.1     for time:  5.400     to  5.600    
EVT   no.   14 value from time series:   4218.8     for time:  5.400     to  5.600    
EVT   no.   20 value from time series:   527.34     for time:  5.400     to  5.600    
WEL   no.    1 value from time series:  -11000.     for time:  5.400     to  5.600    
WEL   no.    2 value from time series:  -30000.     for time:  5.400     to  5.600    
RIV   no.    1 value from time series:   103.25     for time:  5.400     to  5.600    
RIV   no.    2 value from time series:   103.25     for time:  5.400     to  5.600    
RIV   no.    3 value from time series:   103.25     for time:  5.400     to  5.600    
RIV   no.    4 value from time series:   103.25     for time:  5.400     to  5.600    
RIV   no.    5 value from time series:   103.25     for time:  5.400     to  5.600    
RIV   no.    6 value from time series:   103.25     for time:  5.400     to  5.600    
RIV   no.    7 value from time series:   103.25     for time:  5.400     to  5.600    
RIV   no.    8 value from time series:   103.25     for time:  5.400     to  5.600    
RIV   no.    9 value from time series:   103.25     for time:  5.400     to  5.600    
RIV   no.   10 value from time series:   103.25     for time:  5.400     to  5.600    
EVT   no.    1 value from time series:   1054.7     for time:  5.400     to  5.600    
EVT   no.    2 value from time series:   2109.4     for time:  5.400     to  5.600    
EVT   no.    3 value from time series:   3164.1     for time:  5.400     to  5.600    
EVT   no.    4 value from time series:   4218.8     for time:  5.400     to  5.600    
EVT   no.   10 value from time series:   527.34     for time:  5.400     to  5.600    
EVT   no.   11 value from time series:   1054.7     for time:  5.400     to  5.600    
EVT   no.   12 value from time series:   2109.4     for time:  5.400     to  5.600    
EVT   no.   13 value from time series:   3164.1     for time:  5.400     to  5.600    
EVT   no.   14 value from time series:   4218.8     for time:  5.400     to  5.600    
EVT   no.   20 value from time series:   527.34     for time:  5.400     to  5.600    

 OUTPUT CONTROL FOR STRESS PERIOD    4   TIME STEP    3
    SAVE BUDGET
    SAVE HEAD
    SAVE HEAD FOR ALL LAYERS
 UBDSV1 SAVING      STORAGE(SS) ON UNIT   1017 AT TIME STEP      3, STRESS PERIOD      4
 UBDSV1 SAVING      STORAGE(SY) ON UNIT   1017 AT TIME STEP      3, STRESS PERIOD      4
 UBDSV1 SAVING FLOW RIGHT FACE  ON UNIT   1017 AT TIME STEP      3, STRESS PERIOD      4
 UBDSV1 SAVING FLOW FRONT FACE  ON UNIT   1017 AT TIME STEP      3, STRESS PERIOD      4
 UBDSV1 SAVING FLOW LOWER FACE  ON UNIT   1017 AT TIME STEP      3, STRESS PERIOD      4
 UBDSV4 SAVING WELLS NEAR RIVER ON UNIT   1017 AT TIME STEP      3, STRESS PERIOD      4

 WELLS NEAR RIVER   PERIOD  4   STEP  3
 BOUNDARY      1   LAYER   2   ROW     8   COL     4   RATE    -11000.0      WELL_2
 BOUNDARY      2   LAYER   2   ROW     3   COL     4   RATE    -30000.0      WELL_1
 UBDSV4 SAVING RIVER            ON UNIT   1017 AT TIME STEP      3, STRESS PERIOD      4

 RIVER              PERIOD  4   STEP  3
 BOUNDARY      1   LAYER   1   ROW     1   COL    15   RATE    -547.424    
 BOUNDARY      2   LAYER   1   ROW     2   COL    15   RATE    -529.937      RIV2
 BOUNDARY      3   LAYER   1   ROW     3   COL    15   RATE    -503.732      RIV3
 BOUNDARY      4   LAYER   1   ROW     4   COL    15   RATE    -476.426    
 BOUNDARY      5   LAYER   1   ROW     5   COL    15   RATE    -455.192    
 BOUNDARY      6   LAYER   1   ROW     6   COL    15   RATE    -454.546    
 BOUNDARY      7   LAYER   1   ROW     7   COL    15   RATE    -474.916      RIVX
 BOUNDARY      8   LAYER   1   ROW     8   COL    15   RATE    -505.152      RIVX
 BOUNDARY      9   LAYER   1   ROW     9   COL    15   RATE    -536.777      RIVX
 BOUNDARY     10   LAYER   1   ROW    10   COL    15   RATE    -559.378    

 GHB LAKES          PERIOD  4   STEP  3
 BOUNDARY      1   LAYER   1   ROW     3   COL     1   RATE    -7936.76    
 BOUNDARY      2   LAYER   1   ROW     7   COL     1   RATE     4310.45      GHB2_UPPER
 BOUNDARY      3   LAYER   1   ROW     7   COL     1   RATE    -11029.6      GHB2_LOWER
 UBDSV4 SAVING RECHARGE         ON UNIT   1017 AT TIME STEP      3, STRESS PERIOD      4

 RECHARGE           PERIOD  4   STEP  3
 BOUNDARY      2   LAYER   1   ROW     1   COL     2   RATE     750.000    
 BOUNDARY      3   LAYER   1   ROW     1   COL     3   RATE     750.000    
 BOUNDARY      4   LAYER   1   ROW     1   COL     4   RATE     750.000    
 BOUNDARY      5   LAYER   1   ROW     1   COL     5   RATE     750.000    
 BOUNDARY      6   LAYER   1   ROW     1   COL     6   RATE     750.000    
 BOUNDARY      7   LAYER   1   ROW     1   COL     7   RATE     750.000    
 BOUNDARY      8   LAYER   1   ROW     1   COL     8   RATE     750.000    
 BOUNDARY      9   LAYER   1   ROW     1   COL     9   RATE     750.000    
 BOUNDARY     10   LAYER   1   ROW     1   COL    10   RATE     750.000    
 BOUNDARY     11   LAYER   1   ROW     1   COL    11   RATE     750.000    
 BOUNDARY     12   LAYER   1   ROW     1   COL    12   RATE     750.000    
 BOUNDARY     13   LAYER   1   ROW     1   COL    13   RATE     750.000    
 BOUNDARY     14   LAYER   1   ROW     1   COL    14   RATE     750.000    
 BOUNDARY     15   LAYER   1   ROW     1   COL    15   RATE     750.000    
 BOUNDARY     16   LAYER   1   ROW     2   COL     1   RATE     750.000    
 BOUNDARY     17   LAYER   1   ROW     2   COL     2   RATE     750.000    
 BOUNDARY     18   LAYER   1   ROW     2   COL     3   RATE     750.000    
 BOUNDARY     19   LAYER   1   ROW     2   COL     4   RATE     750.000    
 BOUNDARY     20   LAYER   1   ROW     2   COL     5   RATE     750.000    
 BOUNDARY     21   LAYER   1   ROW     2   COL     6   RATE     750.000    
 BOUNDARY     22   LAYER   1   ROW     2   COL     7   RATE     750.000    
 BOUNDARY     23   LAYER   1   ROW     2   COL     8   RATE     750.000    
 BOUNDARY     24   LAYER   1   ROW     2   COL     9   RATE     750.000    
 BOUNDARY     25   LAYER   1   ROW     2   COL    10   RATE     750.000    
 BOUNDARY     26   LAYER   1   ROW     2   COL    11   RATE     750.000    
 BOUNDARY     27   LAYER   1   ROW     2   COL    12   RATE     750.000    
 BOUNDARY     28   LAYER   1   ROW     2   COL    13   RATE     750.000    
 BOUNDARY     29   LAYER   1   ROW     2   COL    14   RATE     750.000    
 BOUNDARY     30   LAYER   1   ROW     2   COL    15   RATE     750.000    
 BOUNDARY     31   LAYER   1   ROW     3   COL     1   RATE     750.000    
 BOUNDARY     32   LAYER   1   ROW     3   COL     2   RATE     750.000    
 BOUNDARY     33   LAYER   1   ROW     3   COL     3   RATE     750.000    
 BOUNDARY     34   LAYER   1   ROW     3   COL     4   RATE     750.000    
 BOUNDARY     35   LAYER   1   ROW     3   COL     5   RATE     750.000    
 BOUNDARY     36   LAYER   1   ROW     3   COL     6   RATE     750.000    
 BOUNDARY     37   LAYER   1   ROW     3   COL     7   RATE     750.000    
 BOUNDARY     38   LAYER   1   ROW     3   COL     8   RATE     750.000    
 BOUNDARY     39   LAYER   1   ROW     3   COL     9   RATE     750.000    
 BOUNDARY     40   LAYER   1   ROW     3   COL    10   RATE     750.000    
 BOUNDARY     41   LAYER   1   ROW     3   COL    11   RATE     750.000    
 BOUNDARY     42   LAYER   1   ROW     3   COL    12   RATE     750.000    
 BOUNDARY     43   LAYER   1   ROW     3   COL    13   RATE     750.000    
 BOUNDARY     44   LAYER   1   ROW     3   COL    14   RATE     750.000    
 BOUNDARY     45   LAYER   1   ROW     3   COL    15   RATE     750.000    
 BOUNDARY     47   LAYER   1   ROW     4   COL     2   RATE     750.000    
 BOUNDARY     48   LAYER   1   ROW     4   COL     3   RATE     750.000    
 BOUNDARY     49   LAYER   1   ROW     4   COL     4   RATE     750.000    
 BOUNDARY     50   LAYER   1   ROW     4   COL     5   RATE     750.000    
 BOUNDARY     51   LAYER   1   ROW     4   COL     6   RATE     750.000    
 BOUNDARY     52   LAYER   1   ROW     4   COL     7   RATE     750.000    
 BOUNDARY     53   LAYER   1   ROW     4   COL     8   RATE     750.000    
 BOUNDARY     54   LAYER   1   ROW     4   COL     9   RATE     750.000    
 BOUNDARY     55   LAYER   1   ROW     4   COL    10   RATE     750.000    
 BOUNDARY     56   LAYER   1   ROW     4   COL    11   RATE     750.000    
 BOUNDARY     57   LAYER   1   ROW     4   COL    12   RATE     750.000    
 BOUNDARY     58   LAYER   1   ROW     4   COL    13   RATE     750.000    
 BOUNDARY     59   LAYER   1   ROW     4   COL    14   RATE     750.000    
 BOUNDARY     60   LAYER   1   ROW     4   COL    15   RATE     750.000    
 BOUNDARY     62   LAYER   1   ROW     5   COL     2   RATE     750.000    
 BOUNDARY     63   LAYER   1   ROW     5   COL     3   RATE     750.000    
 BOUNDARY     64   LAYER   1   ROW     5   COL     4   RATE     750.000    
 BOUNDARY     65   LAYER   1   ROW     5   COL     5   RATE     750.000    
 BOUNDARY     66   LAYER   1   ROW     5   COL     6   RATE     750.000    
 BOUNDARY     67   LAYER   1   ROW     5   COL     7   RATE     750.000    
 BOUNDARY     68   LAYER   1   ROW     5   COL     8   RATE     750.000    
 BOUNDARY     69   LAYER   1   ROW     5   COL     9   RATE     750.000    
 BOUNDARY     70   LAYER   1   ROW     5   COL    10   RATE     750.000    
 BOUNDARY     71   LAYER   1   ROW     5   COL    11   RATE     750.000    
 BOUNDARY     72   LAYER   1   ROW     5   COL    12   RATE     750.000    
 BOUNDARY     73   LAYER   1   ROW     5   COL    13   RATE     750.000    
 BOUNDARY     74   LAYER   1   ROW     5   COL    14   RATE     750.000    
 BOUNDARY     75   LAYER   1   ROW     5   COL    15   RATE     750.000    
 BOUNDARY     77   LAYER   1   ROW     6   COL     2   RATE     750.000    
 BOUNDARY     78   LAYER   1   ROW     6   COL     3   RATE     750.000    
 BOUNDARY     79   LAYER   1   ROW     6   COL     4   RATE     750.000    
 BOUNDARY     80   LAYER   1   ROW     6   COL     5   RATE     750.000    
 BOUNDARY     81   LAYER   1   ROW     6   COL     6   RATE     750.000    
 BOUNDARY     82   LAYER   1   ROW     6   COL     7   RATE     750.000    
 BOUNDARY     83   LAYER   1   ROW     6   COL     8   RATE     750.000    
 BOUNDARY     84   LAYER   1   ROW     6   COL     9   RATE     750.000    
 BOUNDARY     85   LAYER   1   ROW     6   COL    10   RATE     750.000    
 BOUNDARY     86   LAYER   1   ROW     6   COL    11   RATE     750.000    
 BOUNDARY     87   LAYER   1   ROW     6   COL    12   RATE     750.000    
 BOUNDARY     88   LAYER   1   ROW     6   COL    13   RATE     750.000    
 BOUNDARY     89   LAYER   1   ROW     6   COL    14   RATE     750.000    
 BOUNDARY     90   LAYER   1   ROW     6   COL    15   RATE     750.000    
 BOUNDARY     91   LAYER   1   ROW     7   COL     1   RATE     750.000    
 BOUNDARY     92   LAYER   1   ROW     7   COL     2   RATE     750.000    
 BOUNDARY     93   LAYER   1   ROW     7   COL     3   RATE     750.000    
 BOUNDARY     94   LAYER   1   ROW     7   COL     4   RATE     750.000    
 BOUNDARY     95   LAYER   1   ROW     7   COL     5   RATE     750.000    
 BOUNDARY     96   LAYER   1   ROW     7   COL     6   RATE     750.000    
 BOUNDARY     97   LAYER   1   ROW     7   COL     7   RATE     750.000    
 BOUNDARY     98   LAYER   1   ROW     7   COL     8   RATE     750.000    
 BOUNDARY     99   LAYER   1   ROW     7   COL     9   RATE     750.000    
 BOUNDARY    100   LAYER   1   ROW     7   COL    10   RATE     750.000    
 BOUNDARY    101   LAYER   1   ROW     7   COL    11   RATE     750.000    
 BOUNDARY    102   LAYER   1   ROW     7   COL    12   RATE     750.000    
 BOUNDARY    103   LAYER   1   ROW     7   COL    13   RATE     750.000    
 BOUNDARY    104   LAYER   1   ROW     7   COL    14   RATE     750.000    
 BOUNDARY    105   LAYER   1   ROW     7   COL    15   RATE     750.000    
 BOUNDARY    106   LAYER   1   ROW     8   COL     1   RATE     750.000    
 BOUNDARY    107   LAYER   1   ROW     8   COL     2   RATE     750.000    
 BOUNDARY    108   LAYER   1   ROW     8   COL     3   RATE     750.000    
 BOUNDARY    109   LAYER   1   ROW     8   COL     4   RATE     750.000    
 BOUNDARY    110   LAYER   1   ROW     8   COL     5   RATE     750.000    
 BOUNDARY    111   LAYER   1   ROW     8   COL     6   RATE     750.000    
 BOUNDARY    112   LAYER   1   ROW     8   COL     7   RATE     750.000    
 BOUNDARY    113   LAYER   1   ROW     8   COL     8   RATE     750.000    
 BOUNDARY    114   LAYER   1   ROW     8   COL     9   RATE     750.000    
 BOUNDARY    115   LAYER   1   ROW     8   COL    10   RATE     750.000    
 BOUNDARY    116   LAYER   1   ROW     8   COL    11   RATE     750.000    
 BOUNDARY    117   LAYER   1   ROW     8   COL    12   RATE     750.000    
 BOUNDARY    118   LAYER   1   ROW     8   COL    13   RATE     750.000    
 BOUNDARY    119   LAYER   1   ROW     8   COL    14   RATE     750.000    
 BOUNDARY    120   LAYER   1   ROW     8   COL    15   RATE     750.000    
 BOUNDARY    121   LAYER   1   ROW     9   COL     1   RATE     750.000    
 BOUNDARY    122   LAYER   1   ROW     9   COL     2   RATE     750.000    
 BOUNDARY    123   LAYER   1   ROW     9   COL     3   RATE     750.000    
 BOUNDARY    124   LAYER   1   ROW     9   COL     4   RATE     750.000    
 BOUNDARY    125   LAYER   1   ROW     9   COL     5   RATE     750.000    
 BOUNDARY    126   LAYER   1   ROW     9   COL     6   RATE     750.000    
 BOUNDARY    127   LAYER   1   ROW     9   COL     7   RATE     750.000    
 BOUNDARY    128   LAYER   1   ROW     9   COL     8   RATE     750.000    
 BOUNDARY    129   LAYER   1   ROW     9   COL     9   RATE     750.000    
 BOUNDARY    130   LAYER   1   ROW     9   COL    10   RATE     750.000    
 BOUNDARY    131   LAYER   1   ROW     9   COL    11   RATE     750.000    
 BOUNDARY    132   LAYER   1   ROW     9   COL    12   RATE     750.000    
 BOUNDARY    133   LAYER   1   ROW     9   COL    13   RATE     750.000    
 BOUNDARY    134   LAYER   1   ROW     9   COL    14   RATE     750.000    
 BOUNDARY    135   LAYER   1   ROW     9   COL    15   RATE     750.000    
 BOUNDARY    137   LAYER   1   ROW    10   COL     2   RATE     750.000    
 BOUNDARY    138   LAYER   1   ROW    10   COL     3   RATE     750.000    
 BOUNDARY    139   LAYER   1   ROW    10   COL     4   RATE     750.000    
 BOUNDARY    140   LAYER   1   ROW    10   COL     5   RATE     750.000    
 BOUNDARY    141   LAYER   1   ROW    10   COL     6   RATE     750.000    
 BOUNDARY    142   LAYER   1   ROW    10   COL     7   RATE     750.000    
 BOUNDARY    143   LAYER   1   ROW    10   COL     8   RATE     750.000    
 BOUNDARY    144   LAYER   1   ROW    10   COL     9   RATE     750.000    
 BOUNDARY    145   LAYER   1   ROW    10   COL    10   RATE     750.000    
 BOUNDARY    146   LAYER   1   ROW    10   COL    11   RATE     750.000    
 BOUNDARY    147   LAYER   1   ROW    10   COL    12   RATE     750.000    
 BOUNDARY    148   LAYER   1   ROW    10   COL    13   RATE     750.000    
 BOUNDARY    149   LAYER   1   ROW    10   COL    14   RATE     750.000    
 BOUNDARY    150   LAYER   1   ROW    10   COL    15   RATE     750.000    
 UBDSV4 SAVING ET SEGS          ON UNIT   1017 AT TIME STEP      3, STRESS PERIOD      4

 ET SEGS            PERIOD  4   STEP  3
 BOUNDARY      1   LAYER   1   ROW     1   COL    13   RATE    -82.7812      ET-1
 BOUNDARY      2   LAYER   1   ROW     2   COL    13   RATE    -156.668      ET-2
 BOUNDARY      3   LAYER   1   ROW     3   COL    13   RATE    -216.858      ET-3
 BOUNDARY      4   LAYER   1   ROW     4   COL    13   RATE    -264.188      ET-4
 BOUNDARY      5   LAYER   1   ROW     5   COL    13   RATE    -285.439      ET-5
 BOUNDARY      6   LAYER   1   ROW     6   COL    13   RATE    -284.579      ET-6
 BOUNDARY      7   LAYER   1   ROW     7   COL    13   RATE    -216.939      ET-7
 BOUNDARY      8   LAYER   1   ROW     8   COL    13   RATE    -171.442      ET-8
 BOUNDARY      9   LAYER   1   ROW     9   COL    13   RATE    -113.400      ET-9
 BOUNDARY     10   LAYER   1   ROW    10   COL    13   RATE    -42.8426      ET-10
 BOUNDARY     11   LAYER   1   ROW     1   COL    12   RATE    -130.419      ET-1
 BOUNDARY     12   LAYER   1   ROW     2   COL    12   RATE    -227.926      ET-2
 BOUNDARY     13   LAYER   1   ROW     3   COL    12   RATE    -303.545      ET-3
 BOUNDARY     14   LAYER   1   ROW     4   COL    12   RATE    -376.165      ET-4
 BOUNDARY     15   LAYER   1   ROW     5   COL    12   RATE    -413.107      ET-5
 BOUNDARY     16   LAYER   1   ROW     6   COL    12   RATE    -412.215      ET-6
 BOUNDARY     17   LAYER   1   ROW     7   COL    12   RATE    -309.581      ET-7
 BOUNDARY     18   LAYER   1   ROW     8   COL    12   RATE    -240.074      ET-8
 BOUNDARY     19   LAYER   1   ROW     9   COL    12   RATE    -169.663      ET-9
 BOUNDARY     20   LAYER   1   ROW    10   COL    12   RATE    -70.9165      ET-10
 UBDSV4 SAVING CONSTANT HEADS   ON UNIT   1017 AT TIME STEP      3, STRESS PERIOD      4

 CONSTANT HEADS     PERIOD  4   STEP  3
 BOUNDARY      1   LAYER   1   ROW     1   COL     1   RATE     2626.40      CHD-1
 BOUNDARY      2   LAYER   1   ROW     4   COL     1   RATE     4712.46    
 BOUNDARY      3   LAYER   1   ROW     5   COL     1   RATE     832.907      CHD_GP
 BOUNDARY      4   LAYER   1   ROW     6   COL     1   RATE     4303.61      CHD_GP
 BOUNDARY      5   LAYER   1   ROW    10   COL     1   RATE     1753.04      CHD-10

 HEAD WILL BE SAVED ON UNIT 1018 AT END OF TIME STEP    3, STRESS PERIOD    4
WEL   no.    1 value from time series:  -11400.     for time:  5.600     to  5.800    
WEL   no.    2 value from time series:  -30000.     for time:  5.600     to  5.800    
RIV   no.    1 value from time series:   103.15     for time:  5.600     to  5.800    
RIV   no.    2 value from time series:   103.15     for time:  5.600     to  5.800    
RIV   no.    3 value from time series:   103.15     for time:  5.600     to  5.800    
RIV   no.    4 value from time series:   103.15     for time:  5.600     to  5.800    
RIV   no.    5 value from time series:   103.15     for time:  5.600     to  5.800    
RIV   no.    6 value from time series:   103.15     for time:  5.600     to  5.800    
RIV   no.    7 value from time series:   103.15     for time:  5.600     to  5.800    
RIV   no.    8 value from time series:   103.15     for time:  5.600     to  5.800    
RIV   no.    9 value from time series:   103.15     for time:  5.600     to  5.800    
RIV   no.   10 value from time series:   103.15     for time:  5.600     to  5.800    
EVT   no.    1 value from time series:   1071.6     for time:  5.600     to  5.800    
EVT   no.    2 value from time series:   2143.1     for time:  5.600     to  5.800    
EVT   no.    3 value from time series:   3214.7     for time:  5.600     to  5.800    
EVT   no.    4 value from time series:   4286.3     for time:  5.600     to  5.800    
EVT   no.   10 value from time series:   535.78     for time:  5.600     to  5.800    
EVT   no.   11 value from time series:   1071.6     for time:  5.600     to  5.800    
EVT   no.   12 value from time series:   2143.1     for time:  5.600     to  5.800    
EVT   no.   13 value from time series:   3214.7     for time:  5.600     to  5.800    
EVT   no.   14 value from time series:   4286.3     for time:  5.600     to  5.800    
EVT   no.   20 value from time series:   535.78     for time:  5.600     to  5.800    
WEL   no.    1 value from time series:  -11400.     for time:  5.600     to  5.800    
WEL   no.    2 value from time series:  -30000.     for time:  5.600     to  5.800    
RIV   no.    1 value from time series:   103.15     for time:  5.600     to  5.800    
RIV   no.    2 value from time series:   103.15     for time:  5.600     to  5.800    
RIV   no.    3 value from time series:   103.15     for time:  5.600     to  5.800    
RIV   no.    4 value from time series:   103.15     for time:  5.600     to  5.800    
RIV   no.    5 value from time series:   103.15     for time:  5.600     to  5.800    
RIV   no.    6 value from time series:   103.15     for time:  5.600     to  5.800    
RIV   no.    7 value from time series:   103.15     for time:  5.600     to  5.800    
RIV   no.    8 value from time series:   103.15     for time:  5.600     to  5.800    
RIV   no.    9 value from time series:   103.15     for time:  5.600     to  5.800    
RIV   no.   10 value from time series:   103.15     for time:  5.600     to  5.800    
EVT   no.    1 value from time series:   1071.6     for time:  5.600     to  5.800    
EVT   no.    2 value from time series:   2143.1     for time:  5.600     to  5.800    
EVT   no.    3 value from time series:   3214.7     for time:  5.600     to  5.800    
EVT   no.    4 value from time series:   4286.3     for time:  5.600     to  5.800    
EVT   no.   10 value from time series:   535.78     for time:  5.600     to  5.800    
EVT   no.   11 value from time series:   1071.6     for time:  5.600     to  5.800    
EVT   no.   12 value from time series:   2143.1     for time:  5.600     to  5.800    
EVT   no.   13 value from time series:   3214.7     for time:  5.600     to  5.800    
EVT   no.   14 value from time series:   4286.3     for time:  5.600     to  5.800    
EVT   no.   20 value from time series:   535.78     for time:  5.600     to  5.800    

 OUTPUT CONTROL FOR STRESS PERIOD    4   TIME STEP    4
    SAVE BUDGET
    SAVE HEAD
    SAVE HEAD FOR ALL LAYERS
 UBDSV1 SAVING      STORAGE(SS) ON UNIT   1017 AT TIME STEP      4, STRESS PERIOD      4
 UBDSV1 SAVING      STORAGE(SY) ON UNIT   1017 AT TIME STEP      4, STRESS PERIOD      4
 UBDSV1 SAVING FLOW RIGHT FACE  ON UNIT   1017 AT TIME STEP      4, STRESS PERIOD      4
 UBDSV1 SAVING FLOW FRONT FACE  ON UNIT   1017 AT TIME STEP      4, STRESS PERIOD      4
 UBDSV1 SAVING FLOW LOWER FACE  ON UNIT   1017 AT TIME STEP      4, STRESS PERIOD      4
 UBDSV4 SAVING WELLS NEAR RIVER ON UNIT   1017 AT TIME STEP      4, STRESS PERIOD      4

 WELLS NEAR RIVER   PERIOD  4   STEP  4
 BOUNDARY      1   LAYER   2   ROW     8   COL     4   RATE    -11400.0      WELL_2
 BOUNDARY      2   LAYER   2   ROW     3   COL     4   RATE    -30000.0      WELL_1
 UBDSV4 SAVING RIVER            ON UNIT   1017 AT TIME STEP      4, STRESS PERIOD      4

 RIVER              PERIOD  4   STEP  4
 BOUNDARY      1   LAYER   1   ROW     1   COL    15   RATE    -1478.61    
 BOUNDARY      2   LAYER   1   ROW     2   COL    15   RATE    -1461.12      RIV2
 BOUNDARY      3   LAYER   1   ROW     3   COL    15   RATE    -1434.92      RIV3
 BOUNDARY      4   LAYER   1   ROW     4   COL    15   RATE    -1407.61    
 BOUNDARY      5   LAYER   1   ROW     5   COL    15   RATE    -1386.38    
 BOUNDARY      6   LAYER   1   ROW     6   COL    15   RATE    -1385.73    
 BOUNDARY      7   LAYER   1   ROW     7   COL    15   RATE    -1406.10      RIVX
 BOUNDARY      8   LAYER   1   ROW     8   COL    15   RATE    -1436.33      RIVX
 BOUNDARY      9   LAYER   1   ROW     9   COL    15   RATE    -1467.96      RIVX
 BOUNDARY     10   LAYER   1   ROW    10   COL    15   RATE    -1490.56    

 GHB LAKES          PERIOD  4   STEP  4
 BOUNDARY      1   LAYER   1   ROW     3   COL     1   RATE    -7942.12    
 BOUNDARY      2   LAYER   1   ROW     7   COL     1   RATE     4305.69      GHB2_UPPER
 BOUNDARY      3   LAYER   1   ROW     7   COL     1   RATE    -11031.3      GHB2_LOWER
 UBDSV4 SAVING RECHARGE         ON UNIT   1017 AT TIME STEP      4, STRESS PERIOD      4

 RECHARGE           PERIOD  4   STEP  4
 BOUNDARY      2   LAYER   1   ROW     1   COL     2   RATE     750.000    
 BOUNDARY      3   LAYER   1   ROW     1   COL     3   RATE     750.000    
 BOUNDARY      4   LAYER   1   ROW     1   COL     4   RATE     750.000    
 BOUNDARY      5   LAYER   1   ROW     1   COL     5   RATE     750.000    
 BOUNDARY      6   LAYER   1   ROW     1   COL     6   RATE     750.000    
 BOUNDARY      7   LAYER   1   ROW     1   COL     7   RATE     750.000    
 BOUNDARY      8   LAYER   1   ROW     1   COL     8   RATE     750.000    
 BOUNDARY      9   LAYER   1   ROW     1   COL     9   RATE     750.000    
 BOUNDARY     10   LAYER   1   ROW     1   COL    10   RATE     750.000    
 BOUNDARY     11   LAYER   1   ROW     1   COL    11   RATE     750.000    
 BOUNDARY     12   LAYER   1   ROW     1   COL    12   RATE     750.000    
 BOUNDARY     13   LAYER   1   ROW     1   COL    13   RATE     750.000    
 BOUNDARY     14   LAYER   1   ROW     1   COL    14   RATE     750.000    
 BOUNDARY     15   LAYER   1   ROW     1   COL    15   RATE     750.000    
 BOUNDARY     16   LAYER   1   ROW     2   COL     1   RATE     750.000    
 BOUNDARY     17   LAYER   1   ROW     2   COL     2   RATE     750.000    
 BOUNDARY     18   LAYER   1   ROW     2   COL     3   RATE     750.000    
 BOUNDARY     19   LAYER   1   ROW     2   COL     4   RATE     750.000    
 BOUNDARY     20   LAYER   1   ROW     2   COL     5   RATE     750.000    
 BOUNDARY     21   LAYER   1   ROW     2   COL     6   RATE     750.000    
 BOUNDARY     22   LAYER   1   ROW     2   COL     7   RATE     750.000    
 BOUNDARY     23   LAYER   1   ROW     2   COL     8   RATE     750.000    
 BOUNDARY     24   LAYER   1   ROW     2   COL     9   RATE     750.000    
 BOUNDARY     25   LAYER   1   ROW     2   COL    10   RATE     750.000    
 BOUNDARY     26   LAYER   1   ROW     2   COL    11   RATE     750.000    
 BOUNDARY     27   LAYER   1   ROW     2   COL    12   RATE     750.000    
 BOUNDARY     28   LAYER   1   ROW     2   COL    13   RATE     750.000    
 BOUNDARY     29   LAYER   1   ROW     2   COL    14   RATE     750.000    
 BOUNDARY     30   LAYER   1   ROW     2   COL    15   RATE     750.000    
 BOUNDARY     31   LAYER   1   ROW     3   COL     1   RATE     750.000    
 BOUNDARY     32   LAYER   1   ROW     3   COL     2   RATE     750.000    
 BOUNDARY     33   LAYER   1   ROW     3   COL     3   RATE     750.000    
 BOUNDARY     34   LAYER   1   ROW     3   COL     4   RATE     750.000    
 BOUNDARY     35   LAYER   1   ROW     3   COL     5   RATE     750.000    
 BOUNDARY     36   LAYER   1   ROW     3   COL     6   RATE     750.000    
 BOUNDARY     37   LAYER   1   ROW     3   COL     7   RATE     750.000    
 BOUNDARY     38   LAYER   1   ROW     3   COL     8   RATE     750.000    
 BOUNDARY     39   LAYER   1   ROW     3   COL     9   RATE     750.000    
 BOUNDARY     40   LAYER   1   ROW     3   COL    10   RATE     750.000    
 BOUNDARY     41   LAYER   1   ROW     3   COL    11   RATE     750.000    
 BOUNDARY     42   LAYER   1   ROW     3   COL    12   RATE     750.000    
 BOUNDARY     43   LAYER   1   ROW     3   COL    13   RATE     750.000    
 BOUNDARY     44   LAYER   1   ROW     3   COL    14   RATE     750.000    
 BOUNDARY     45   LAYER   1   ROW     3   COL    15   RATE     750.000    
 BOUNDARY     47   LAYER   1   ROW     4   COL     2   RATE     750.000    
 BOUNDARY     48   LAYER   1   ROW     4   COL     3   RATE     750.000    
 BOUNDARY     49   LAYER   1   ROW     4   COL     4   RATE     750.000    
 BOUNDARY     50   LAYER   1   ROW     4   COL     5   RATE     750.000    
 BOUNDARY     51   LAYER   1   ROW     4   COL     6   RATE     750.000    
 BOUNDARY     52   LAYER   1   ROW     4   COL     7   RATE     750.000    
 BOUNDARY     53   LAYER   1   ROW     4   COL     8   RATE     750.000    
 BOUNDARY     54   LAYER   1   ROW     4   COL     9   RATE     750.000    
 BOUNDARY     55   LAYER   1   ROW     4   COL    10   RATE     750.000    
 BOUNDARY     56   LAYER   1   ROW     4   COL    11   RATE     750.000    
 BOUNDARY     57   LAYER   1   ROW     4   COL    12   RATE     750.000    
 BOUNDARY     58   LAYER   1   ROW     4   COL    13   RATE     750.000    
 BOUNDARY     59   LAYER   1   ROW     4   COL    14   RATE     750.000    
 BOUNDARY     60   LAYER   1   ROW     4   COL    15   RATE     750.000    
 BOUNDARY     62   LAYER   1   ROW     5   COL     2   RATE     750.000    
 BOUNDARY     63   LAYER   1   ROW     5   COL     3   RATE     750.000    
 BOUNDARY     64   LAYER   1   ROW     5   COL     4   RATE     750.000    
 BOUNDARY     65   LAYER   1   ROW     5   COL     5   RATE     750.000    
 BOUNDARY     66   LAYER   1   ROW     5   COL     6   RATE     750.000    
 BOUNDARY     67   LAYER   1   ROW     5   COL     7   RATE     750.000    
 BOUNDARY     68   LAYER   1   ROW     5   COL     8   RATE     750.000    
 BOUNDARY     69   LAYER   1   ROW     5   COL     9   RATE     750.000    
 BOUNDARY     70   LAYER   1   ROW     5   COL    10   RATE     750.000    
 BOUNDARY     71   LAYER   1   ROW     5   COL    11   RATE     750.000    
 BOUNDARY     72   LAYER   1   ROW     5   COL    12   RATE     750.000    
 BOUNDARY     73   LAYER   1   ROW     5   COL    13   RATE     750.000    
 BOUNDARY     74   LAYER   1   ROW     5   COL    14   RATE     750.000    
 BOUNDARY     75   LAYER   1   ROW     5   COL    15   RATE     750.000    
 BOUNDARY     77   LAYER   1   ROW     6   COL     2   RATE     750.000    
 BOUNDARY     78   LAYER   1   ROW     6   COL     3   RATE     750.000    
 BOUNDARY     79   LAYER   1   ROW     6   COL     4   RATE     750.000    
 BOUNDARY     80   LAYER   1   ROW     6   COL     5   RATE     750.000    
 BOUNDARY     81   LAYER   1   ROW     6   COL     6   RATE     750.000    
 BOUNDARY     82   LAYER   1   ROW     6   COL     7   RATE     750.000    
 BOUNDARY     83   LAYER   1   ROW     6   COL     8   RATE     750.000    
 BOUNDARY     84   LAYER   1   ROW     6   COL     9   RATE     750.000    
 BOUNDARY     85   LAYER   1   ROW     6   COL    10   RATE     750.000    
 BOUNDARY     86   LAYER   1   ROW     6   COL    11   RATE     750.000    
 BOUNDARY     87   LAYER   1   ROW     6   COL    12   RATE     750.000    
 BOUNDARY     88   LAYER   1   ROW     6   COL    13   RATE     750.000    
 BOUNDARY     89   LAYER   1   ROW     6   COL    14   RATE     750.000    
 BOUNDARY     90   LAYER   1   ROW     6   COL    15   RATE     750.000    
 BOUNDARY     91   LAYER   1   ROW     7   COL     1   RATE     750.000    
 BOUNDARY     92   LAYER   1   ROW     7   COL     2   RATE     750.000    
 BOUNDARY     93   LAYER   1   ROW     7   COL     3   RATE     750.000    
 BOUNDARY     94   LAYER   1   ROW     7   COL     4   RATE     750.000    
 BOUNDARY     95   LAYER   1   ROW     7   COL     5   RATE     750.000    
 BOUNDARY     96   LAYER   1   ROW     7   COL     6   RATE     750.000    
 BOUNDARY     97   LAYER   1   ROW     7   COL     7   RATE     750.000    
 BOUNDARY     98   LAYER   1   ROW     7   COL     8   RATE     750.000    
 BOUNDARY     99   LAYER   1   ROW     7   COL     9   RATE     750.000    
 BOUNDARY    100   LAYER   1   ROW     7   COL    10   RATE     750.000    
 BOUNDARY    101   LAYER   1   ROW     7   COL    11   RATE     750.000    
 BOUNDARY    102   LAYER   1   ROW     7   COL    12   RATE     750.000    
 BOUNDARY    103   LAYER   1   ROW     7   COL    13   RATE     750.000    
 BOUNDARY    104   LAYER   1   ROW     7   COL    14   RATE     750.000    
 BOUNDARY    105   LAYER   1   ROW     7   COL    15   RATE     750.000    
 BOUNDARY    106   LAYER   1   ROW     8   COL     1   RATE     750.000    
 BOUNDARY    107   LAYER   1   ROW     8   COL     2   RATE     750.000    
 BOUNDARY    108   LAYER   1   ROW     8   COL     3   RATE     750.000    
 BOUNDARY    109   LAYER   1   ROW     8   COL     4   RATE     750.000    
 BOUNDARY    110   LAYER   1   ROW     8   COL     5   RATE     750.000    
 BOUNDARY    111   LAYER   1   ROW     8   COL     6   RATE     750.000    
 BOUNDARY    112   LAYER   1   ROW     8   COL     7   RATE     750.000    
 BOUNDARY    113   LAYER   1   ROW     8   COL     8   RATE     750.000    
 BOUNDARY    114   LAYER   1   ROW     8   COL     9   RATE     750.000    
 BOUNDARY    115   LAYER   1   ROW     8   COL    10   RATE     750.000    
 BOUNDARY    116   LAYER   1   ROW     8   COL    11   RATE     750.000    
 BOUNDARY    117   LAYER   1   ROW     8   COL    12   RATE     750.000    
 BOUNDARY    118   LAYER   1   ROW     8   COL    13   RATE     750.000    
 BOUNDARY    119   LAYER   1   ROW     8   COL    14   RATE     750.000    
 BOUNDARY    120   LAYER   1   ROW     8   COL    15   RATE     750.000    
 BOUNDARY    121   LAYER   1   ROW     9   COL     1   RATE     750.000    
 BOUNDARY    122   LAYER   1   ROW     9   COL     2   RATE     750.000    
 BOUNDARY    123   LAYER   1   ROW     9   COL     3   RATE     750.000    
 BOUNDARY    124   LAYER   1   ROW     9   COL     4   RATE     750.000    
 BOUNDARY    125   LAYER   1   ROW     9   COL     5   RATE     750.000    
 BOUNDARY    126   LAYER   1   ROW     9   COL     6   RATE     750.000    
 BOUNDARY    127   LAYER   1   ROW     9   COL     7   RATE     750.000    
 BOUNDARY    128   LAYER   1   ROW     9   COL     8   RATE     750.000    
 BOUNDARY    129   LAYER   1   ROW     9   COL     9   RATE     750.000    
 BOUNDARY    130   LAYER   1   ROW     9   COL    10   RATE     750.000    
 BOUNDARY    131   LAYER   1   ROW     9   COL    11   RATE     750.000    
 BOUNDARY    132   LAYER   1   ROW     9   COL    12   RATE     750.000    
 BOUNDARY    133   LAYER   1   ROW     9   COL    13   RATE     750.000    
 BOUNDARY    134   LAYER   1   ROW     9   COL    14   RATE     750.000    
 BOUNDARY    135   LAYER   1   ROW     9   COL    15   RATE     750.000    
 BOUNDARY    137   LAYER   1   ROW    10   COL     2   RATE     750.000    
 BOUNDARY    138   LAYER   1   ROW    10   COL     3   RATE     750.000    
 BOUNDARY    139   LAYER   1   ROW    10   COL     4   RATE     750.000    
 BOUNDARY    140   LAYER   1   ROW    10   COL     5   RATE     750.000    
 BOUNDARY    141   LAYER   1   ROW    10   COL     6   RATE     750.000    
 BOUNDARY    142   LAYER   1   ROW    10   COL     7   RATE     750.000    
 BOUNDARY    143   LAYER   1   ROW    10   COL     8   RATE     750.000    
 BOUNDARY    144   LAYER   1   ROW    10   COL     9   RATE     750.000    
 BOUNDARY    145   LAYER   1   ROW    10   COL    10   RATE     750.000    
 BOUNDARY    146   LAYER   1   ROW    10   COL    11   RATE     750.000    
 BOUNDARY    147   LAYER   1   ROW    10   COL    12   RATE     750.000    
 BOUNDARY    148   LAYER   1   ROW    10   COL    13   RATE     750.000    
 BOUNDARY    149   LAYER   1   ROW    10   COL    14   RATE     750.000    
 BOUNDARY    150   LAYER   1   ROW    10   COL    15   RATE     750.000    
 UBDSV4 SAVING ET SEGS          ON UNIT   1017 AT TIME STEP      4, STRESS PERIOD      4

 ET SEGS            PERIOD  4   STEP  4
 BOUNDARY      1   LAYER   1   ROW     1   COL    13   RATE    -84.2239      ET-1
 BOUNDARY      2   LAYER   1   ROW     2   COL    13   RATE    -159.403      ET-2
 BOUNDARY      3   LAYER   1   ROW     3   COL    13   RATE    -220.662      ET-3
 BOUNDARY      4   LAYER   1   ROW     4   COL    13   RATE    -268.851      ET-4
 BOUNDARY      5   LAYER   1   ROW     5   COL    13   RATE    -286.000      ET-5
 BOUNDARY      6   LAYER   1   ROW     6   COL    13   RATE    -285.140      ET-6
 BOUNDARY      7   LAYER   1   ROW     7   COL    13   RATE    -217.334      ET-7
 BOUNDARY      8   LAYER   1   ROW     8   COL    13   RATE    -171.725      ET-8
 BOUNDARY      9   LAYER   1   ROW     9   COL    13   RATE    -113.570      ET-9
 BOUNDARY     10   LAYER   1   ROW    10   COL    13   RATE    -43.5882      ET-10
 BOUNDARY     11   LAYER   1   ROW     1   COL    12   RATE    -132.882      ET-1
 BOUNDARY     12   LAYER   1   ROW     2   COL    12   RATE    -232.289      ET-2
 BOUNDARY     13   LAYER   1   ROW     3   COL    12   RATE    -308.717      ET-3
 BOUNDARY     14   LAYER   1   ROW     4   COL    12   RATE    -382.591      ET-4
 BOUNDARY     15   LAYER   1   ROW     5   COL    12   RATE    -413.657      ET-5
 BOUNDARY     16   LAYER   1   ROW     6   COL    12   RATE    -412.766      ET-6
 BOUNDARY     17   LAYER   1   ROW     7   COL    12   RATE    -309.968      ET-7
 BOUNDARY     18   LAYER   1   ROW     8   COL    12   RATE    -240.352      ET-8
 BOUNDARY     19   LAYER   1   ROW     9   COL    12   RATE    -170.213      ET-9
 BOUNDARY     20   LAYER   1   ROW    10   COL    12   RATE    -72.2448      ET-10
 UBDSV4 SAVING CONSTANT HEADS   ON UNIT   1017 AT TIME STEP      4, STRESS PERIOD      4

 CONSTANT HEADS     PERIOD  4   STEP  4
 BOUNDARY      1   LAYER   1   ROW     1   COL     1   RATE     2626.58      CHD-1
 BOUNDARY      2   LAYER   1   ROW     4   COL     1   RATE     4713.23    
 BOUNDARY      3   LAYER   1   ROW     5   COL     1   RATE     833.751      CHD_GP
 BOUNDARY      4   LAYER   1   ROW     6   COL     1   RATE     4303.43      CHD_GP
 BOUNDARY      5   LAYER   1   ROW    10   COL     1   RATE     1751.65      CHD-10

 HEAD WILL BE SAVED ON UNIT 1018 AT END OF TIME STEP    4, STRESS PERIOD    4
WEL   no.    1 value from time series:  -11800.     for time:  5.800     to  6.000    
WEL   no.    2 value from time series:  -30000.     for time:  5.800     to  6.000    
RIV   no.    1 value from time series:   103.05     for time:  5.800     to  6.000    
RIV   no.    2 value from time series:   103.05     for time:  5.800     to  6.000    
RIV   no.    3 value from time series:   103.05     for time:  5.800     to  6.000    
RIV   no.    4 value from time series:   103.05     for time:  5.800     to  6.000    
RIV   no.    5 value from time series:   103.05     for time:  5.800     to  6.000    
RIV   no.    6 value from time series:   103.05     for time:  5.800     to  6.000    
RIV   no.    7 value from time series:   103.05     for time:  5.800     to  6.000    
RIV   no.    8 value from time series:   103.05     for time:  5.800     to  6.000    
RIV   no.    9 value from time series:   103.05     for time:  5.800     to  6.000    
RIV   no.   10 value from time series:   103.05     for time:  5.800     to  6.000    
EVT   no.    1 value from time series:   1088.4     for time:  5.800     to  6.000    
EVT   no.    2 value from time series:   2176.9     for time:  5.800     to  6.000    
EVT   no.    3 value from time series:   3265.3     for time:  5.800     to  6.000    
EVT   no.    4 value from time series:   4353.8     for time:  5.800     to  6.000    
EVT   no.   10 value from time series:   544.22     for time:  5.800     to  6.000    
EVT   no.   11 value from time series:   1088.4     for time:  5.800     to  6.000    
EVT   no.   12 value from time series:   2176.9     for time:  5.800     to  6.000    
EVT   no.   13 value from time series:   3265.3     for time:  5.800     to  6.000    
EVT   no.   14 value from time series:   4353.8     for time:  5.800     to  6.000    
EVT   no.   20 value from time series:   544.22     for time:  5.800     to  6.000    
WEL   no.    1 value from time series:  -11800.     for time:  5.800     to  6.000    
WEL   no.    2 value from time series:  -30000.     for time:  5.800     to  6.000    
RIV   no.    1 value from time series:   103.05     for time:  5.800     to  6.000    
RIV   no.    2 value from time series:   103.05     for time:  5.800     to  6.000    
RIV   no.    3 value from time series:   103.05     for time:  5.800     to  6.000    
RIV   no.    4 value from time series:   103.05     for time:  5.800     to  6.000    
RIV   no.    5 value from time series:   103.05     for time:  5.800     to  6.000    
RIV   no.    6 value from time series:   103.05     for time:  5.800     to  6.000    
RIV   no.    7 value from time series:   103.05     for time:  5.800     to  6.000    
RIV   no.    8 value from time series:   103.05     for time:  5.800     to  6.000    
RIV   no.    9 value from time series:   103.05     for time:  5.800     to  6.000    
RIV   no.   10 value from time series:   103.05     for time:  5.800     to  6.000    
EVT   no.    1 value from time series:   1088.4     for time:  5.800     to  6.000    
EVT   no.    2 value from time series:   2176.9     for time:  5.800     to  6.000    
EVT   no.    3 value from time series:   3265.3     for time:  5.800     to  6.000    
EVT   no.    4 value from time series:   4353.8     for time:  5.800     to  6.000    
EVT   no.   10 value from time series:   544.22     for time:  5.800     to  6.000    
EVT   no.   11 value from time series:   1088.4     for time:  5.800     to  6.000    
EVT   no.   12 value from time series:   2176.9     for time:  5.800     to  6.000    
EVT   no.   13 value from time series:   3265.3     for time:  5.800     to  6.000    
EVT   no.   14 value from time series:   4353.8     for time:  5.800     to  6.000    
EVT   no.   20 value from time series:   544.22     for time:  5.800     to  6.000    

 OUTPUT CONTROL FOR STRESS PERIOD    4   TIME STEP    5
    SAVE BUDGET
    SAVE HEAD
    SAVE HEAD FOR ALL LAYERS
 UBDSV1 SAVING      STORAGE(SS) ON UNIT   1017 AT TIME STEP      5, STRESS PERIOD      4
 UBDSV1 SAVING      STORAGE(SY) ON UNIT   1017 AT TIME STEP      5, STRESS PERIOD      4
 UBDSV1 SAVING FLOW RIGHT FACE  ON UNIT   1017 AT TIME STEP      5, STRESS PERIOD      4
 UBDSV1 SAVING FLOW FRONT FACE  ON UNIT   1017 AT TIME STEP      5, STRESS PERIOD      4
 UBDSV1 SAVING FLOW LOWER FACE  ON UNIT   1017 AT TIME STEP      5, STRESS PERIOD      4
 UBDSV4 SAVING WELLS NEAR RIVER ON UNIT   1017 AT TIME STEP      5, STRESS PERIOD      4

 WELLS NEAR RIVER   PERIOD  4   STEP  5
 BOUNDARY      1   LAYER   2   ROW     8   COL     4   RATE    -11800.0      WELL_2
 BOUNDARY      2   LAYER   2   ROW     3   COL     4   RATE    -30000.0      WELL_1
 UBDSV4 SAVING RIVER            ON UNIT   1017 AT TIME STEP      5, STRESS PERIOD      4

 RIVER              PERIOD  4   STEP  5
 BOUNDARY      1   LAYER   1   ROW     1   COL    15   RATE    -2339.90    
 BOUNDARY      2   LAYER   1   ROW     2   COL    15   RATE    -2322.41      RIV2
 BOUNDARY      3   LAYER   1   ROW     3   COL    15   RATE    -2296.20      RIV3
 BOUNDARY      4   LAYER   1   ROW     4   COL    15   RATE    -2268.89    
 BOUNDARY      5   LAYER   1   ROW     5   COL    15   RATE    -2247.66    
 BOUNDARY      6   LAYER   1   ROW     6   COL    15   RATE    -2247.01    
 BOUNDARY      7   LAYER   1   ROW     7   COL    15   RATE    -2267.38      RIVX
 BOUNDARY      8   LAYER   1   ROW     8   COL    15   RATE    -2297.62      RIVX
 BOUNDARY      9   LAYER   1   ROW     9   COL    15   RATE    -2329.25      RIVX
 BOUNDARY     10   LAYER   1   ROW    10   COL    15   RATE    -2351.85    

 GHB LAKES          PERIOD  4   STEP  5
 BOUNDARY      1   LAYER   1   ROW     3   COL     1   RATE    -7947.37    
 BOUNDARY      2   LAYER   1   ROW     7   COL     1   RATE     4301.03      GHB2_UPPER
 BOUNDARY      3   LAYER   1   ROW     7   COL     1   RATE    -11033.0      GHB2_LOWER
 UBDSV4 SAVING RECHARGE         ON UNIT   1017 AT TIME STEP      5, STRESS PERIOD      4

 RECHARGE           PERIOD  4   STEP  5
 BOUNDARY      2   LAYER   1   ROW     1   COL     2   RATE     750.000    
 BOUNDARY      3   LAYER   1   ROW     1   COL     3   RATE     750.000    
 BOUNDARY      4   LAYER   1   ROW     1   COL     4   RATE     750.000    
 BOUNDARY      5   LAYER   1   ROW     1   COL     5   RATE     750.000    
 BOUNDARY      6   LAYER   1   ROW     1   COL     6   RATE     750.000    
 BOUNDARY      7   LAYER   1   ROW     1   COL     7   RATE     750.000    
 BOUNDARY      8   LAYER   1   ROW     1   COL     8   RATE     750.000    
 BOUNDARY      9   LAYER   1   ROW     1   COL     9   RATE     750.000    
 BOUNDARY     10   LAYER   1   ROW     1   COL    10   RATE     750.000    
 BOUNDARY     11   LAYER   1   ROW     1   COL    11   RATE     750.000    
 BOUNDARY     12   LAYER   1   ROW     1   COL    12   RATE     750.000    
 BOUNDARY     13   LAYER   1   ROW     1   COL    13   RATE     750.000    
 BOUNDARY     14   LAYER   1   ROW     1   COL    14   RATE     750.000    
 BOUNDARY     15   LAYER   1   ROW     1   COL    15   RATE     750.000    
 BOUNDARY     16   LAYER   1   ROW     2   COL     1   RATE     750.000    
 BOUNDARY     17   LAYER   1   ROW     2   COL     2   RATE     750.000    
 BOUNDARY     18   LAYER   1   ROW     2   COL     3   RATE     750.000    
 BOUNDARY     19   LAYER   1   ROW     2   COL     4   RATE     750.000    
 BOUNDARY     20   LAYER   1   ROW     2   COL     5   RATE     750.000    
 BOUNDARY     21   LAYER   1   ROW     2   COL     6   RATE     750.000    
 BOUNDARY     22   LAYER   1   ROW     2   COL     7   RATE     750.000    
 BOUNDARY     23   LAYER   1   ROW     2   COL     8   RATE     750.000    
 BOUNDARY     24   LAYER   1   ROW     2   COL     9   RATE     750.000    
 BOUNDARY     25   LAYER   1   ROW     2   COL    10   RATE     750.000    
 BOUNDARY     26   LAYER   1   ROW     2   COL    11   RATE     750.000    
 BOUNDARY     27   LAYER   1   ROW     2   COL    12   RATE     750.000    
 BOUNDARY     28   LAYER   1   ROW     2   COL    13   RATE     750.000    
 BOUNDARY     29   LAYER   1   ROW     2   COL    14   RATE     750.000    
 BOUNDARY     30   LAYER   1   ROW     2   COL    15   RATE     750.000    
 BOUNDARY     31   LAYER   1   ROW     3   COL     1   RATE     750.000    
 BOUNDARY     32   LAYER   1   ROW     3   COL     2   RATE     750.000    
 BOUNDARY     33   LAYER   1   ROW     3   COL     3   RATE     750.000    
 BOUNDARY     34   LAYER   1   ROW     3   COL     4   RATE     750.000    
 BOUNDARY     35   LAYER   1   ROW     3   COL     5   RATE     750.000    
 BOUNDARY     36   LAYER   1   ROW     3   COL     6   RATE     750.000    
 BOUNDARY     37   LAYER   1   ROW     3   COL     7   RATE     750.000    
 BOUNDARY     38   LAYER   1   ROW     3   COL     8   RATE     750.000    
 BOUNDARY     39   LAYER   1   ROW     3   COL     9   RATE     750.000    
 BOUNDARY     40   LAYER   1   ROW     3   COL    10   RATE     750.000    
 BOUNDARY     41   LAYER   1   ROW     3   COL    11   RATE     750.000    
 BOUNDARY     42   LAYER   1   ROW     3   COL    12   RATE     750.000    
 BOUNDARY     43   LAYER   1   ROW     3   COL    13   RATE     750.000    
 BOUNDARY     44   LAYER   1   ROW     3   COL    14   RATE     750.000    
 BOUNDARY     45   LAYER   1   ROW     3   COL    15   RATE     750.000    
 BOUNDARY     47   LAYER   1   ROW     4   COL     2   RATE     750.000    
 BOUNDARY     48   LAYER   1   ROW     4   COL     3   RATE     750.000    
 BOUNDARY     49   LAYER   1   ROW     4   COL     4   RATE     750.000    
 BOUNDARY     50   LAYER   1   ROW     4   COL     5   RATE     750.000    
 BOUNDARY     51   LAYER   1   ROW     4   COL     6   RATE     750.000    
 BOUNDARY     52   LAYER   1   ROW     4   COL     7   RATE     750.000    
 BOUNDARY     53   LAYER   1   ROW     4   COL     8   RATE     750.000    
 BOUNDARY     54   LAYER   1   ROW     4   COL     9   RATE     750.000    
 BOUNDARY     55   LAYER   1   ROW     4   COL    10   RATE     750.000    
 BOUNDARY     56   LAYER   1   ROW     4   COL    11   RATE     750.000    
 BOUNDARY     57   LAYER   1   ROW     4   COL    12   RATE     750.000    
 BOUNDARY     58   LAYER   1   ROW     4   COL    13   RATE     750.000    
 BOUNDARY     59   LAYER   1   ROW     4   COL    14   RATE     750.000    
 BOUNDARY     60   LAYER   1   ROW     4   COL    15   RATE     750.000    
 BOUNDARY     62   LAYER   1   ROW     5   COL     2   RATE     750.000    
 BOUNDARY     63   LAYER   1   ROW     5   COL     3   RATE     750.000    
 BOUNDARY     64   LAYER   1   ROW     5   COL     4   RATE     750.000    
 BOUNDARY     65   LAYER   1   ROW     5   COL     5   RATE     750.000    
 BOUNDARY     66   LAYER   1   ROW     5   COL     6   RATE     750.000    
 BOUNDARY     67   LAYER   1   ROW     5   COL     7   RATE     750.000    
 BOUNDARY     68   LAYER   1   ROW     5   COL     8   RATE     750.000    
 BOUNDARY     69   LAYER   1   ROW     5   COL     9   RATE     750.000    
 BOUNDARY     70   LAYER   1   ROW     5   COL    10   RATE     750.000    
 BOUNDARY     71   LAYER   1   ROW     5   COL    11   RATE     750.000    
 BOUNDARY     72   LAYER   1   ROW     5   COL    12   RATE     750.000    
 BOUNDARY     73   LAYER   1   ROW     5   COL    13   RATE     750.000    
 BOUNDARY     74   LAYER   1   ROW     5   COL    14   RATE     750.000    
 BOUNDARY     75   LAYER   1   ROW     5   COL    15   RATE     750.000    
 BOUNDARY     77   LAYER   1   ROW     6   COL     2   RATE     750.000    
 BOUNDARY     78   LAYER   1   ROW     6   COL     3   RATE     750.000    
 BOUNDARY     79   LAYER   1   ROW     6   COL     4   RATE     750.000    
 BOUNDARY     80   LAYER   1   ROW     6   COL     5   RATE     750.000    
 BOUNDARY     81   LAYER   1   ROW     6   COL     6   RATE     750.000    
 BOUNDARY     82   LAYER   1   ROW     6   COL     7   RATE     750.000    
 BOUNDARY     83   LAYER   1   ROW     6   COL     8   RATE     750.000    
 BOUNDARY     84   LAYER   1   ROW     6   COL     9   RATE     750.000    
 BOUNDARY     85   LAYER   1   ROW     6   COL    10   RATE     750.000    
 BOUNDARY     86   LAYER   1   ROW     6   COL    11   RATE     750.000    
 BOUNDARY     87   LAYER   1   ROW     6   COL    12   RATE     750.000    
 BOUNDARY     88   LAYER   1   ROW     6   COL    13   RATE     750.000    
 BOUNDARY     89   LAYER   1   ROW     6   COL    14   RATE     750.000    
 BOUNDARY     90   LAYER   1   ROW     6   COL    15   RATE     750.000    
 BOUNDARY     91   LAYER   1   ROW     7   COL     1   RATE     750.000    
 BOUNDARY     92   LAYER   1   ROW     7   COL     2   RATE     750.000    
 BOUNDARY     93   LAYER   1   ROW     7   COL     3   RATE     750.000    
 BOUNDARY     94   LAYER   1   ROW     7   COL     4   RATE     750.000    
 BOUNDARY     95   LAYER   1   ROW     7   COL     5   RATE     750.000    
 BOUNDARY     96   LAYER   1   ROW     7   COL     6   RATE     750.000    
 BOUNDARY     97   LAYER   1   ROW     7   COL     7   RATE     750.000    
 BOUNDARY     98   LAYER   1   ROW     7   COL     8   RATE     750.000    
 BOUNDARY     99   LAYER   1   ROW     7   COL     9   RATE     750.000    
 BOUNDARY    100   LAYER   1   ROW     7   COL    10   RATE     750.000    
 BOUNDARY    101   LAYER   1   ROW     7   COL    11   RATE     750.000    
 BOUNDARY    102   LAYER   1   ROW     7   COL    12   RATE     750.000    
 BOUNDARY    103   LAYER   1   ROW     7   COL    13   RATE     750.000    
 BOUNDARY    104   LAYER   1   ROW     7   COL    14   RATE     750.000    
 BOUNDARY    105   LAYER   1   ROW     7   COL    15   RATE     750.000    
 BOUNDARY    106   LAYER   1   ROW     8   COL     1   RATE     750.000    
 BOUNDARY    107   LAYER   1   ROW     8   COL     2   RATE     750.000    
 BOUNDARY    108   LAYER   1   ROW     8   COL     3   RATE     750.000    
 BOUNDARY    109   LAYER   1   ROW     8   COL     4   RATE     750.000    
 BOUNDARY    110   LAYER   1   ROW     8   COL     5   RATE     750.000    
 BOUNDARY    111   LAYER   1   ROW     8   COL     6   RATE     750.000    
 BOUNDARY    112   LAYER   1   ROW     8   COL     7   RATE     750.000    
 BOUNDARY    113   LAYER   1   ROW     8   COL     8   RATE     750.000    
 BOUNDARY    114   LAYER   1   ROW     8   COL     9   RATE     750.000    
 BOUNDARY    115   LAYER   1   ROW     8   COL    10   RATE     750.000    
 BOUNDARY    116   LAYER   1   ROW     8   COL    11   RATE     750.000    
 BOUNDARY    117   LAYER   1   ROW     8   COL    12   RATE     750.000    
 BOUNDARY    118   LAYER   1   ROW     8   COL    13   RATE     750.000    
 BOUNDARY    119   LAYER   1   ROW     8   COL    14   RATE     750.000    
 BOUNDARY    120   LAYER   1   ROW     8   COL    15   RATE     750.000    
 BOUNDARY    121   LAYER   1   ROW     9   COL     1   RATE     750.000    
 BOUNDARY    122   LAYER   1   ROW     9   COL     2   RATE     750.000    
 BOUNDARY    123   LAYER   1   ROW     9   COL     3   RATE     750.000    
 BOUNDARY    124   LAYER   1   ROW     9   COL     4   RATE     750.000    
 BOUNDARY    125   LAYER   1   ROW     9   COL     5   RATE     750.000    
 BOUNDARY    126   LAYER   1   ROW     9   COL     6   RATE     750.000    
 BOUNDARY    127   LAYER   1   ROW     9   COL     7   RATE     750.000    
 BOUNDARY    128   LAYER   1   ROW     9   COL     8   RATE     750.000    
 BOUNDARY    129   LAYER   1   ROW     9   COL     9   RATE     750.000    
 BOUNDARY    130   LAYER   1   ROW     9   COL    10   RATE     750.000    
 BOUNDARY    131   LAYER   1   ROW     9   COL    11   RATE     750.000    
 BOUNDARY    132   LAYER   1   ROW     9   COL    12   RATE     750.000    
 BOUNDARY    133   LAYER   1   ROW     9   COL    13   RATE     750.000    
 BOUNDARY    134   LAYER   1   ROW     9   COL    14   RATE     750.000    
 BOUNDARY    135   LAYER   1   ROW     9   COL    15   RATE     750.000    
 BOUNDARY    137   LAYER   1   ROW    10   COL     2   RATE     750.000    
 BOUNDARY    138   LAYER   1   ROW    10   COL     3   RATE     750.000    
 BOUNDARY    139   LAYER   1   ROW    10   COL     4   RATE     750.000    
 BOUNDARY    140   LAYER   1   ROW    10   COL     5   RATE     750.000    
 BOUNDARY    141   LAYER   1   ROW    10   COL     6   RATE     750.000    
 BOUNDARY    142   LAYER   1   ROW    10   COL     7   RATE     750.000    
 BOUNDARY    143   LAYER   1   ROW    10   COL     8   RATE     750.000    
 BOUNDARY    144   LAYER   1   ROW    10   COL     9   RATE     750.000    
 BOUNDARY    145   LAYER   1   ROW    10   COL    10   RATE     750.000    
 BOUNDARY    146   LAYER   1   ROW    10   COL    11   RATE     750.000    
 BOUNDARY    147   LAYER   1   ROW    10   COL    12   RATE     750.000    
 BOUNDARY    148   LAYER   1   ROW    10   COL    13   RATE     750.000    
 BOUNDARY    149   LAYER   1   ROW    10   COL    14   RATE     750.000    
 BOUNDARY    150   LAYER   1   ROW    10   COL    15   RATE     750.000    
 UBDSV4 SAVING ET SEGS          ON UNIT   1017 AT TIME STEP      5, STRESS PERIOD      4

 ET SEGS            PERIOD  4   STEP  5
 BOUNDARY      1   LAYER   1   ROW     1   COL    13   RATE    -85.6701      ET-1
 BOUNDARY      2   LAYER   1   ROW     2   COL    13   RATE    -162.145      ET-2
 BOUNDARY      3   LAYER   1   ROW     3   COL    13   RATE    -224.475      ET-3
 BOUNDARY      4   LAYER   1   ROW     4   COL    13   RATE    -273.526      ET-4
 BOUNDARY      5   LAYER   1   ROW     5   COL    13   RATE    -286.560      ET-5
 BOUNDARY      6   LAYER   1   ROW     6   COL    13   RATE    -285.701      ET-6
 BOUNDARY      7   LAYER   1   ROW     7   COL    13   RATE    -217.729      ET-7
 BOUNDARY      8   LAYER   1   ROW     8   COL    13   RATE    -172.009      ET-8
 BOUNDARY      9   LAYER   1   ROW     9   COL    13   RATE    -113.741      ET-9
 BOUNDARY     10   LAYER   1   ROW    10   COL    13   RATE    -44.3357      ET-10
 BOUNDARY     11   LAYER   1   ROW     1   COL    12   RATE    -135.355      ET-1
 BOUNDARY     12   LAYER   1   ROW     2   COL    12   RATE    -236.670      ET-2
 BOUNDARY     13   LAYER   1   ROW     3   COL    12   RATE    -313.897      ET-3
 BOUNDARY     14   LAYER   1   ROW     4   COL    12   RATE    -389.026      ET-4
 BOUNDARY     15   LAYER   1   ROW     5   COL    12   RATE    -414.205      ET-5
 BOUNDARY     16   LAYER   1   ROW     6   COL    12   RATE    -413.315      ET-6
 BOUNDARY     17   LAYER   1   ROW     7   COL    12   RATE    -310.355      ET-7
 BOUNDARY     18   LAYER   1   ROW     8   COL    12   RATE    -240.629      ET-8
 BOUNDARY     19   LAYER   1   ROW     9   COL    12   RATE    -170.763      ET-9
 BOUNDARY     20   LAYER   1   ROW    10   COL    12   RATE    -73.5789      ET-10
 UBDSV4 SAVING CONSTANT HEADS   ON UNIT   1017 AT TIME STEP      5, STRESS PERIOD      4

 CONSTANT HEADS     PERIOD  4   STEP  5
 BOUNDARY      1   LAYER   1   ROW     1   COL     1   RATE     2626.76      CHD-1
 BOUNDARY      2   LAYER   1   ROW     4   COL     1   RATE     4713.97    
 BOUNDARY      3   LAYER   1   ROW     5   COL     1   RATE     834.613      CHD_GP
 BOUNDARY      4   LAYER   1   ROW     6   COL     1   RATE     4303.34      CHD_GP
 BOUNDARY      5   LAYER   1   ROW    10   COL     1   RATE     1750.38      CHD-10

 HEAD WILL BE SAVED ON UNIT 1018 AT END OF TIME STEP    5, STRESS PERIOD    4
WEL   no.    1 value from time series:  -12200.     for time:  6.000     to  6.200    
WEL   no.    2 value from time series:  -30000.     for time:  6.000     to  6.200    
RIV   no.    1 value from time series:   102.97     for time:  6.000     to  6.200    
RIV   no.    2 value from time series:   102.97     for time:  6.000     to  6.200    
RIV   no.    3 value from time series:   102.97     for time:  6.000     to  6.200    
RIV   no.    4 value from time series:   102.97     for time:  6.000     to  6.200    
RIV   no.    5 value from time series:   102.97     for time:  6.000     to  6.200    
RIV   no.    6 value from time series:   102.97     for time:  6.000     to  6.200    
RIV   no.    7 value from time series:   102.97     for time:  6.000     to  6.200    
RIV   no.    8 value from time series:   102.97     for time:  6.000     to  6.200    
RIV   no.    9 value from time series:   102.97     for time:  6.000     to  6.200    
RIV   no.   10 value from time series:   102.97     for time:  6.000     to  6.200    
EVT   no.    1 value from time series:   1105.3     for time:  6.000     to  6.200    
EVT   no.    2 value from time series:   2210.6     for time:  6.000     to  6.200    
EVT   no.    3 value from time series:   3315.9     for time:  6.000     to  6.200    
EVT   no.    4 value from time series:   4421.3     for time:  6.000     to  6.200    
EVT   no.   10 value from time series:   552.66     for time:  6.000     to  6.200    
EVT   no.   11 value from time series:   1105.3     for time:  6.000     to  6.200    
EVT   no.   12 value from time series:   2210.6     for time:  6.000     to  6.200    
EVT   no.   13 value from time series:   3315.9     for time:  6.000     to  6.200    
EVT   no.   14 value from time series:   4421.3     for time:  6.000     to  6.200    
EVT   no.   20 value from time series:   552.66     for time:  6.000     to  6.200    
WEL   no.    1 value from time series:  -12200.     for time:  6.000     to  6.200    
WEL   no.    2 value from time series:  -30000.     for time:  6.000     to  6.200    
RIV   no.    1 value from time series:   102.97     for time:  6.000     to  6.200    
RIV   no.    2 value from time series:   102.97     for time:  6.000     to  6.200    
RIV   no.    3 value from time series:   102.97     for time:  6.000     to  6.200    
RIV   no.    4 value from time series:   102.97     for time:  6.000     to  6.200    
RIV   no.    5 value from time series:   102.97     for time:  6.000     to  6.200    
RIV   no.    6 value from time series:   102.97     for time:  6.000     to  6.200    
RIV   no.    7 value from time series:   102.97     for time:  6.000     to  6.200    
RIV   no.    8 value from time series:   102.97     for time:  6.000     to  6.200    
RIV   no.    9 value from time series:   102.97     for time:  6.000     to  6.200    
RIV   no.   10 value from time series:   102.97     for time:  6.000     to  6.200    
EVT   no.    1 value from time series:   1105.3     for time:  6.000     to  6.200    
EVT   no.    2 value from time series:   2210.6     for time:  6.000     to  6.200    
EVT   no.    3 value from time series:   3315.9     for time:  6.000     to  6.200    
EVT   no.    4 value from time series:   4421.3     for time:  6.000     to  6.200    
EVT   no.   10 value from time series:   552.66     for time:  6.000     to  6.200    
EVT   no.   11 value from time series:   1105.3     for time:  6.000     to  6.200    
EVT   no.   12 value from time series:   2210.6     for time:  6.000     to  6.200    
EVT   no.   13 value from time series:   3315.9     for time:  6.000     to  6.200    
EVT   no.   14 value from time series:   4421.3     for time:  6.000     to  6.200    
EVT   no.   20 value from time series:   552.66     for time:  6.000     to  6.200    

 OUTPUT CONTROL FOR STRESS PERIOD    4   TIME STEP    6
    SAVE BUDGET
    SAVE HEAD
    SAVE HEAD FOR ALL LAYERS
 UBDSV1 SAVING      STORAGE(SS) ON UNIT   1017 AT TIME STEP      6, STRESS PERIOD      4
 UBDSV1 SAVING      STORAGE(SY) ON UNIT   1017 AT TIME STEP      6, STRESS PERIOD      4
 UBDSV1 SAVING FLOW RIGHT FACE  ON UNIT   1017 AT TIME STEP      6, STRESS PERIOD      4
 UBDSV1 SAVING FLOW FRONT FACE  ON UNIT   1017 AT TIME STEP      6, STRESS PERIOD      4
 UBDSV1 SAVING FLOW LOWER FACE  ON UNIT   1017 AT TIME STEP      6, STRESS PERIOD      4
 UBDSV4 SAVING WELLS NEAR RIVER ON UNIT   1017 AT TIME STEP      6, STRESS PERIOD      4

 WELLS NEAR RIVER   PERIOD  4   STEP  6
 BOUNDARY      1   LAYER   2   ROW     8   COL     4   RATE    -12200.0      WELL_2
 BOUNDARY      2   LAYER   2   ROW     3   COL     4   RATE    -30000.0      WELL_1
 UBDSV4 SAVING RIVER            ON UNIT   1017 AT TIME STEP      6, STRESS PERIOD      4

 RIVER              PERIOD  4   STEP  6
 BOUNDARY      1   LAYER   1   ROW     1   COL    15   RATE    -2982.58    
 BOUNDARY      2   LAYER   1   ROW     2   COL    15   RATE    -2965.09      RIV2
 BOUNDARY      3   LAYER   1   ROW     3   COL    15   RATE    -2938.87      RIV3
 BOUNDARY      4   LAYER   1   ROW     4   COL    15   RATE    -2911.55    
 BOUNDARY      5   LAYER   1   ROW     5   COL    15   RATE    -2890.31    
 BOUNDARY      6   LAYER   1   ROW     6   COL    15   RATE    -2889.66    
 BOUNDARY      7   LAYER   1   ROW     7   COL    15   RATE    -2910.04      RIVX
 BOUNDARY      8   LAYER   1   ROW     8   COL    15   RATE    -2940.29      RIVX
 BOUNDARY      9   LAYER   1   ROW     9   COL    15   RATE    -2971.93      RIVX
 BOUNDARY     10   LAYER   1   ROW    10   COL    15   RATE    -2994.54    

 GHB LAKES          PERIOD  4   STEP  6
 BOUNDARY      1   LAYER   1   ROW     3   COL     1   RATE    -7952.53    
 BOUNDARY      2   LAYER   1   ROW     7   COL     1   RATE     4296.46      GHB2_UPPER
 BOUNDARY      3   LAYER   1   ROW     7   COL     1   RATE    -11034.6      GHB2_LOWER
 UBDSV4 SAVING RECHARGE         ON UNIT   1017 AT TIME STEP      6, STRESS PERIOD      4

 RECHARGE           PERIOD  4   STEP  6
 BOUNDARY      2   LAYER   1   ROW     1   COL     2   RATE     750.000    
 BOUNDARY      3   LAYER   1   ROW     1   COL     3   RATE     750.000    
 BOUNDARY      4   LAYER   1   ROW     1   COL     4   RATE     750.000    
 BOUNDARY      5   LAYER   1   ROW     1   COL     5   RATE     750.000    
 BOUNDARY      6   LAYER   1   ROW     1   COL     6   RATE     750.000    
 BOUNDARY      7   LAYER   1   ROW     1   COL     7   RATE     750.000    
 BOUNDARY      8   LAYER   1   ROW     1   COL     8   RATE     750.000    
 BOUNDARY      9   LAYER   1   ROW     1   COL     9   RATE     750.000    
 BOUNDARY     10   LAYER   1   ROW     1   COL    10   RATE     750.000    
 BOUNDARY     11   LAYER   1   ROW     1   COL    11   RATE     750.000    
 BOUNDARY     12   LAYER   1   ROW     1   COL    12   RATE     750.000    
 BOUNDARY     13   LAYER   1   ROW     1   COL    13   RATE     750.000    
 BOUNDARY     14   LAYER   1   ROW     1   COL    14   RATE     750.000    
 BOUNDARY     15   LAYER   1   ROW     1   COL    15   RATE     750.000    
 BOUNDARY     16   LAYER   1   ROW     2   COL     1   RATE     750.000    
 BOUNDARY     17   LAYER   1   ROW     2   COL     2   RATE     750.000    
 BOUNDARY     18   LAYER   1   ROW     2   COL     3   RATE     750.000    
 BOUNDARY     19   LAYER   1   ROW     2   COL     4   RATE     750.000    
 BOUNDARY     20   LAYER   1   ROW     2   COL     5   RATE     750.000    
 BOUNDARY     21   LAYER   1   ROW     2   COL     6   RATE     750.000    
 BOUNDARY     22   LAYER   1   ROW     2   COL     7   RATE     750.000    
 BOUNDARY     23   LAYER   1   ROW     2   COL     8   RATE     750.000    
 BOUNDARY     24   LAYER   1   ROW     2   COL     9   RATE     750.000    
 BOUNDARY     25   LAYER   1   ROW     2   COL    10   RATE     750.000    
 BOUNDARY     26   LAYER   1   ROW     2   COL    11   RATE     750.000    
 BOUNDARY     27   LAYER   1   ROW     2   COL    12   RATE     750.000    
 BOUNDARY     28   LAYER   1   ROW     2   COL    13   RATE     750.000    
 BOUNDARY     29   LAYER   1   ROW     2   COL    14   RATE     750.000    
 BOUNDARY     30   LAYER   1   ROW     2   COL    15   RATE     750.000    
 BOUNDARY     31   LAYER   1   ROW     3   COL     1   RATE     750.000    
 BOUNDARY     32   LAYER   1   ROW     3   COL     2   RATE     750.000    
 BOUNDARY     33   LAYER   1   ROW     3   COL     3   RATE     750.000    
 BOUNDARY     34   LAYER   1   ROW     3   COL     4   RATE     750.000    
 BOUNDARY     35   LAYER   1   ROW     3   COL     5   RATE     750.000    
 BOUNDARY     36   LAYER   1   ROW     3   COL     6   RATE     750.000    
 BOUNDARY     37   LAYER   1   ROW     3   COL     7   RATE     750.000    
 BOUNDARY     38   LAYER   1   ROW     3   COL     8   RATE     750.000    
 BOUNDARY     39   LAYER   1   ROW     3   COL     9   RATE     750.000    
 BOUNDARY     40   LAYER   1   ROW     3   COL    10   RATE     750.000    
 BOUNDARY     41   LAYER   1   ROW     3   COL    11   RATE     750.000    
 BOUNDARY     42   LAYER   1   ROW     3   COL    12   RATE     750.000    
 BOUNDARY     43   LAYER   1   ROW     3   COL    13   RATE     750.000    
 BOUNDARY     44   LAYER   1   ROW     3   COL    14   RATE     750.000    
 BOUNDARY     45   LAYER   1   ROW     3   COL    15   RATE     750.000    
 BOUNDARY     47   LAYER   1   ROW     4   COL     2   RATE     750.000    
 BOUNDARY     48   LAYER   1   ROW     4   COL     3   RATE     750.000    
 BOUNDARY     49   LAYER   1   ROW     4   COL     4   RATE     750.000    
 BOUNDARY     50   LAYER   1   ROW     4   COL     5   RATE     750.000    
 BOUNDARY     51   LAYER   1   ROW     4   COL     6   RATE     750.000    
 BOUNDARY     52   LAYER   1   ROW     4   COL     7   RATE     750.000    
 BOUNDARY     53   LAYER   1   ROW     4   COL     8   RATE     750.000    
 BOUNDARY     54   LAYER   1   ROW     4   COL     9   RATE     750.000    
 BOUNDARY     55   LAYER   1   ROW     4   COL    10   RATE     750.000    
 BOUNDARY     56   LAYER   1   ROW     4   COL    11   RATE     750.000    
 BOUNDARY     57   LAYER   1   ROW     4   COL    12   RATE     750.000    
 BOUNDARY     58   LAYER   1   ROW     4   COL    13   RATE     750.000    
 BOUNDARY     59   LAYER   1   ROW     4   COL    14   RATE     750.000    
 BOUNDARY     60   LAYER   1   ROW     4   COL    15   RATE     750.000    
 BOUNDARY     62   LAYER   1   ROW     5   COL     2   RATE     750.000    
 BOUNDARY     63   LAYER   1   ROW     5   COL     3   RATE     750.000    
 BOUNDARY     64   LAYER   1   ROW     5   COL     4   RATE     750.000    
 BOUNDARY     65   LAYER   1   ROW     5   COL     5   RATE     750.000    
 BOUNDARY     66   LAYER   1   ROW     5   COL     6   RATE     750.000    
 BOUNDARY     67   LAYER   1   ROW     5   COL     7   RATE     750.000    
 BOUNDARY     68   LAYER   1   ROW     5   COL     8   RATE     750.000    
 BOUNDARY     69   LAYER   1   ROW     5   COL     9   RATE     750.000    
 BOUNDARY     70   LAYER   1   ROW     5   COL    10   RATE     750.000    
 BOUNDARY     71   LAYER   1   ROW     5   COL    11   RATE     750.000    
 BOUNDARY     72   LAYER   1   ROW     5   COL    12   RATE     750.000    
 BOUNDARY     73   LAYER   1   ROW     5   COL    13   RATE     750.000    
 BOUNDARY     74   LAYER   1   ROW     5   COL    14   RATE     750.000    
 BOUNDARY     75   LAYER   1   ROW     5   COL    15   RATE     750.000    
 BOUNDARY     77   LAYER   1   ROW     6   COL     2   RATE     750.000    
 BOUNDARY     78   LAYER   1   ROW     6   COL     3   RATE     750.000    
 BOUNDARY     79   LAYER   1   ROW     6   COL     4   RATE     750.000    
 BOUNDARY     80   LAYER   1   ROW     6   COL     5   RATE     750.000    
 BOUNDARY     81   LAYER   1   ROW     6   COL     6   RATE     750.000    
 BOUNDARY     82   LAYER   1   ROW     6   COL     7   RATE     750.000    
 BOUNDARY     83   LAYER   1   ROW     6   COL     8   RATE     750.000    
 BOUNDARY     84   LAYER   1   ROW     6   COL     9   RATE     750.000    
 BOUNDARY     85   LAYER   1   ROW     6   COL    10   RATE     750.000    
 BOUNDARY     86   LAYER   1   ROW     6   COL    11   RATE     750.000    
 BOUNDARY     87   LAYER   1   ROW     6   COL    12   RATE     750.000    
 BOUNDARY     88   LAYER   1   ROW     6   COL    13   RATE     750.000    
 BOUNDARY     89   LAYER   1   ROW     6   COL    14   RATE     750.000    
 BOUNDARY     90   LAYER   1   ROW     6   COL    15   RATE     750.000    
 BOUNDARY     91   LAYER   1   ROW     7   COL     1   RATE     750.000    
 BOUNDARY     92   LAYER   1   ROW     7   COL     2   RATE     750.000    
 BOUNDARY     93   LAYER   1   ROW     7   COL     3   RATE     750.000    
 BOUNDARY     94   LAYER   1   ROW     7   COL     4   RATE     750.000    
 BOUNDARY     95   LAYER   1   ROW     7   COL     5   RATE     750.000    
 BOUNDARY     96   LAYER   1   ROW     7   COL     6   RATE     750.000    
 BOUNDARY     97   LAYER   1   ROW     7   COL     7   RATE     750.000    
 BOUNDARY     98   LAYER   1   ROW     7   COL     8   RATE     750.000    
 BOUNDARY     99   LAYER   1   ROW     7   COL     9   RATE     750.000    
 BOUNDARY    100   LAYER   1   ROW     7   COL    10   RATE     750.000    
 BOUNDARY    101   LAYER   1   ROW     7   COL    11   RATE     750.000    
 BOUNDARY    102   LAYER   1   ROW     7   COL    12   RATE     750.000    
 BOUNDARY    103   LAYER   1   ROW     7   COL    13   RATE     750.000    
 BOUNDARY    104   LAYER   1   ROW     7   COL    14   RATE     750.000    
 BOUNDARY    105   LAYER   1   ROW     7   COL    15   RATE     750.000    
 BOUNDARY    106   LAYER   1   ROW     8   COL     1   RATE     750.000    
 BOUNDARY    107   LAYER   1   ROW     8   COL     2   RATE     750.000    
 BOUNDARY    108   LAYER   1   ROW     8   COL     3   RATE     750.000    
 BOUNDARY    109   LAYER   1   ROW     8   COL     4   RATE     750.000    
 BOUNDARY    110   LAYER   1   ROW     8   COL     5   RATE     750.000    
 BOUNDARY    111   LAYER   1   ROW     8   COL     6   RATE     750.000    
 BOUNDARY    112   LAYER   1   ROW     8   COL     7   RATE     750.000    
 BOUNDARY    113   LAYER   1   ROW     8   COL     8   RATE     750.000    
 BOUNDARY    114   LAYER   1   ROW     8   COL     9   RATE     750.000    
 BOUNDARY    115   LAYER   1   ROW     8   COL    10   RATE     750.000    
 BOUNDARY    116   LAYER   1   ROW     8   COL    11   RATE     750.000    
 BOUNDARY    117   LAYER   1   ROW     8   COL    12   RATE     750.000    
 BOUNDARY    118   LAYER   1   ROW     8   COL    13   RATE     750.000    
 BOUNDARY    119   LAYER   1   ROW     8   COL    14   RATE     750.000    
 BOUNDARY    120   LAYER   1   ROW     8   COL    15   RATE     750.000    
 BOUNDARY    121   LAYER   1   ROW     9   COL     1   RATE     750.000    
 BOUNDARY    122   LAYER   1   ROW     9   COL     2   RATE     750.000    
 BOUNDARY    123   LAYER   1   ROW     9   COL     3   RATE     750.000    
 BOUNDARY    124   LAYER   1   ROW     9   COL     4   RATE     750.000    
 BOUNDARY    125   LAYER   1   ROW     9   COL     5   RATE     750.000    
 BOUNDARY    126   LAYER   1   ROW     9   COL     6   RATE     750.000    
 BOUNDARY    127   LAYER   1   ROW     9   COL     7   RATE     750.000    
 BOUNDARY    128   LAYER   1   ROW     9   COL     8   RATE     750.000    
 BOUNDARY    129   LAYER   1   ROW     9   COL     9   RATE     750.000    
 BOUNDARY    130   LAYER   1   ROW     9   COL    10   RATE     750.000    
 BOUNDARY    131   LAYER   1   ROW     9   COL    11   RATE     750.000    
 BOUNDARY    132   LAYER   1   ROW     9   COL    12   RATE     750.000    
 BOUNDARY    133   LAYER   1   ROW     9   COL    13   RATE     750.000    
 BOUNDARY    134   LAYER   1   ROW     9   COL    14   RATE     750.000    
 BOUNDARY    135   LAYER   1   ROW     9   COL    15   RATE     750.000    
 BOUNDARY    137   LAYER   1   ROW    10   COL     2   RATE     750.000    
 BOUNDARY    138   LAYER   1   ROW    10   COL     3   RATE     750.000    
 BOUNDARY    139   LAYER   1   ROW    10   COL     4   RATE     750.000    
 BOUNDARY    140   LAYER   1   ROW    10   COL     5   RATE     750.000    
 BOUNDARY    141   LAYER   1   ROW    10   COL     6   RATE     750.000    
 BOUNDARY    142   LAYER   1   ROW    10   COL     7   RATE     750.000    
 BOUNDARY    143   LAYER   1   ROW    10   COL     8   RATE     750.000    
 BOUNDARY    144   LAYER   1   ROW    10   COL     9   RATE     750.000    
 BOUNDARY    145   LAYER   1   ROW    10   COL    10   RATE     750.000    
 BOUNDARY    146   LAYER   1   ROW    10   COL    11   RATE     750.000    
 BOUNDARY    147   LAYER   1   ROW    10   COL    12   RATE     750.000    
 BOUNDARY    148   LAYER   1   ROW    10   COL    13   RATE     750.000    
 BOUNDARY    149   LAYER   1   ROW    10   COL    14   RATE     750.000    
 BOUNDARY    150   LAYER   1   ROW    10   COL    15   RATE     750.000    
 UBDSV4 SAVING ET SEGS          ON UNIT   1017 AT TIME STEP      6, STRESS PERIOD      4

 ET SEGS            PERIOD  4   STEP  6
 BOUNDARY      1   LAYER   1   ROW     1   COL    13   RATE    -87.1199      ET-1
 BOUNDARY      2   LAYER   1   ROW     2   COL    13   RATE    -164.894      ET-2
 BOUNDARY      3   LAYER   1   ROW     3   COL    13   RATE    -228.297      ET-3
 BOUNDARY      4   LAYER   1   ROW     4   COL    13   RATE    -278.212      ET-4
 BOUNDARY      5   LAYER   1   ROW     5   COL    13   RATE    -287.121      ET-5
 BOUNDARY      6   LAYER   1   ROW     6   COL    13   RATE    -286.263      ET-6
 BOUNDARY      7   LAYER   1   ROW     7   COL    13   RATE    -218.124      ET-7
 BOUNDARY      8   LAYER   1   ROW     8   COL    13   RATE    -172.292      ET-8
 BOUNDARY      9   LAYER   1   ROW     9   COL    13   RATE    -113.911      ET-9
 BOUNDARY     10   LAYER   1   ROW    10   COL    13   RATE    -45.0851      ET-10
 BOUNDARY     11   LAYER   1   ROW     1   COL    12   RATE    -137.839      ET-1
 BOUNDARY     12   LAYER   1   ROW     2   COL    12   RATE    -241.069      ET-2
 BOUNDARY     13   LAYER   1   ROW     3   COL    12   RATE    -319.084      ET-3
 BOUNDARY     14   LAYER   1   ROW     4   COL    12   RATE    -395.469      ET-4
 BOUNDARY     15   LAYER   1   ROW     5   COL    12   RATE    -414.754      ET-5
 BOUNDARY     16   LAYER   1   ROW     6   COL    12   RATE    -413.865      ET-6
 BOUNDARY     17   LAYER   1   ROW     7   COL    12   RATE    -310.742      ET-7
 BOUNDARY     18   LAYER   1   ROW     8   COL    12   RATE    -240.906      ET-8
 BOUNDARY     19   LAYER   1   ROW     9   COL    12   RATE    -171.312      ET-9
 BOUNDARY     20   LAYER   1   ROW    10   COL    12   RATE    -74.9187      ET-10
 UBDSV4 SAVING CONSTANT HEADS   ON UNIT   1017 AT TIME STEP      6, STRESS PERIOD      4

 CONSTANT HEADS     PERIOD  4   STEP  6
 BOUNDARY      1   LAYER   1   ROW     1   COL     1   RATE     2626.93      CHD-1
 BOUNDARY      2   LAYER   1   ROW     4   COL     1   RATE     4714.68    
 BOUNDARY      3   LAYER   1   ROW     5   COL     1   RATE     835.489      CHD_GP
 BOUNDARY      4   LAYER   1   ROW     6   COL     1   RATE     4303.34      CHD_GP
 BOUNDARY      5   LAYER   1   ROW    10   COL     1   RATE     1749.22      CHD-10

 HEAD WILL BE SAVED ON UNIT 1018 AT END OF TIME STEP    6, STRESS PERIOD    4
WEL   no.    1 value from time series:  -12600.     for time:  6.200     to  6.400    
WEL   no.    2 value from time series:  -30000.     for time:  6.200     to  6.400    
RIV   no.    1 value from time series:   102.90     for time:  6.200     to  6.400    
RIV   no.    2 value from time series:   102.90     for time:  6.200     to  6.400    
RIV   no.    3 value from time series:   102.90     for time:  6.200     to  6.400    
RIV   no.    4 value from time series:   102.90     for time:  6.200     to  6.400    
RIV   no.    5 value from time series:   102.90     for time:  6.200     to  6.400    
RIV   no.    6 value from time series:   102.90     for time:  6.200     to  6.400    
RIV   no.    7 value from time series:   102.90     for time:  6.200     to  6.400    
RIV   no.    8 value from time series:   102.90     for time:  6.200     to  6.400    
RIV   no.    9 value from time series:   102.90     for time:  6.200     to  6.400    
RIV   no.   10 value from time series:   102.90     for time:  6.200     to  6.400    
EVT   no.    1 value from time series:   1122.2     for time:  6.200     to  6.400    
EVT   no.    2 value from time series:   2244.4     for time:  6.200     to  6.400    
EVT   no.    3 value from time series:   3366.6     for time:  6.200     to  6.400    
EVT   no.    4 value from time series:   4488.8     for time:  6.200     to  6.400    
EVT   no.   10 value from time series:   561.09     for time:  6.200     to  6.400    
EVT   no.   11 value from time series:   1122.2     for time:  6.200     to  6.400    
EVT   no.   12 value from time series:   2244.4     for time:  6.200     to  6.400    
EVT   no.   13 value from time series:   3366.6     for time:  6.200     to  6.400    
EVT   no.   14 value from time series:   4488.8     for time:  6.200     to  6.400    
EVT   no.   20 value from time series:   561.09     for time:  6.200     to  6.400    
WEL   no.    1 value from time series:  -12600.     for time:  6.200     to  6.400    
WEL   no.    2 value from time series:  -30000.     for time:  6.200     to  6.400    
RIV   no.    1 value from time series:   102.90     for time:  6.200     to  6.400    
RIV   no.    2 value from time series:   102.90     for time:  6.200     to  6.400    
RIV   no.    3 value from time series:   102.90     for time:  6.200     to  6.400    
RIV   no.    4 value from time series:   102.90     for time:  6.200     to  6.400    
RIV   no.    5 value from time series:   102.90     for time:  6.200     to  6.400    
RIV   no.    6 value from time series:   102.90     for time:  6.200     to  6.400    
RIV   no.    7 value from time series:   102.90     for time:  6.200     to  6.400    
RIV   no.    8 value from time series:   102.90     for time:  6.200     to  6.400    
RIV   no.    9 value from time series:   102.90     for time:  6.200     to  6.400    
RIV   no.   10 value from time series:   102.90     for time:  6.200     to  6.400    
EVT   no.    1 value from time series:   1122.2     for time:  6.200     to  6.400    
EVT   no.    2 value from time series:   2244.4     for time:  6.200     to  6.400    
EVT   no.    3 value from time series:   3366.6     for time:  6.200     to  6.400    
EVT   no.    4 value from time series:   4488.8     for time:  6.200     to  6.400    
EVT   no.   10 value from time series:   561.09     for time:  6.200     to  6.400    
EVT   no.   11 value from time series:   1122.2     for time:  6.200     to  6.400    
EVT   no.   12 value from time series:   2244.4     for time:  6.200     to  6.400    
EVT   no.   13 value from time series:   3366.6     for time:  6.200     to  6.400    
EVT   no.   14 value from time series:   4488.8     for time:  6.200     to  6.400    
EVT   no.   20 value from time series:   561.09     for time:  6.200     to  6.400    

 OUTPUT CONTROL FOR STRESS PERIOD    4   TIME STEP    7
    SAVE BUDGET
    SAVE HEAD
    SAVE HEAD FOR ALL LAYERS
 UBDSV1 SAVING      STORAGE(SS) ON UNIT   1017 AT TIME STEP      7, STRESS PERIOD      4
 UBDSV1 SAVING      STORAGE(SY) ON UNIT   1017 AT TIME STEP      7, STRESS PERIOD      4
 UBDSV1 SAVING FLOW RIGHT FACE  ON UNIT   1017 AT TIME STEP      7, STRESS PERIOD      4
 UBDSV1 SAVING FLOW FRONT FACE  ON UNIT   1017 AT TIME STEP      7, STRESS PERIOD      4
 UBDSV1 SAVING FLOW LOWER FACE  ON UNIT   1017 AT TIME STEP      7, STRESS PERIOD      4
 UBDSV4 SAVING WELLS NEAR RIVER ON UNIT   1017 AT TIME STEP      7, STRESS PERIOD      4

 WELLS NEAR RIVER   PERIOD  4   STEP  7
 BOUNDARY      1   LAYER   2   ROW     8   COL     4   RATE    -12600.0      WELL_2
 BOUNDARY      2   LAYER   2   ROW     3   COL     4   RATE    -30000.0      WELL_1
 UBDSV4 SAVING RIVER            ON UNIT   1017 AT TIME STEP      7, STRESS PERIOD      4

 RIVER              PERIOD  4   STEP  7
 BOUNDARY      1   LAYER   1   ROW     1   COL    15   RATE    -3423.22    
 BOUNDARY      2   LAYER   1   ROW     2   COL    15   RATE    -3405.72      RIV2
 BOUNDARY      3   LAYER   1   ROW     3   COL    15   RATE    -3379.48      RIV3
 BOUNDARY      4   LAYER   1   ROW     4   COL    15   RATE    -3352.15    
 BOUNDARY      5   LAYER   1   ROW     5   COL    15   RATE    -3330.90    
 BOUNDARY      6   LAYER   1   ROW     6   COL    15   RATE    -3330.25    
 BOUNDARY      7   LAYER   1   ROW     7   COL    15   RATE    -3350.64      RIVX
 BOUNDARY      8   LAYER   1   ROW     8   COL    15   RATE    -3380.90      RIVX
 BOUNDARY      9   LAYER   1   ROW     9   COL    15   RATE    -3412.56      RIVX
 BOUNDARY     10   LAYER   1   ROW    10   COL    15   RATE    -3435.18    

 GHB LAKES          PERIOD  4   STEP  7
 BOUNDARY      1   LAYER   1   ROW     3   COL     1   RATE    -7957.59    
 BOUNDARY      2   LAYER   1   ROW     7   COL     1   RATE     4291.98      GHB2_UPPER
 BOUNDARY      3   LAYER   1   ROW     7   COL     1   RATE    -11036.3      GHB2_LOWER
 UBDSV4 SAVING RECHARGE         ON UNIT   1017 AT TIME STEP      7, STRESS PERIOD      4

 RECHARGE           PERIOD  4   STEP  7
 BOUNDARY      2   LAYER   1   ROW     1   COL     2   RATE     750.000    
 BOUNDARY      3   LAYER   1   ROW     1   COL     3   RATE     750.000    
 BOUNDARY      4   LAYER   1   ROW     1   COL     4   RATE     750.000    
 BOUNDARY      5   LAYER   1   ROW     1   COL     5   RATE     750.000    
 BOUNDARY      6   LAYER   1   ROW     1   COL     6   RATE     750.000    
 BOUNDARY      7   LAYER   1   ROW     1   COL     7   RATE     750.000    
 BOUNDARY      8   LAYER   1   ROW     1   COL     8   RATE     750.000    
 BOUNDARY      9   LAYER   1   ROW     1   COL     9   RATE     750.000    
 BOUNDARY     10   LAYER   1   ROW     1   COL    10   RATE     750.000    
 BOUNDARY     11   LAYER   1   ROW     1   COL    11   RATE     750.000    
 BOUNDARY     12   LAYER   1   ROW     1   COL    12   RATE     750.000    
 BOUNDARY     13   LAYER   1   ROW     1   COL    13   RATE     750.000    
 BOUNDARY     14   LAYER   1   ROW     1   COL    14   RATE     750.000    
 BOUNDARY     15   LAYER   1   ROW     1   COL    15   RATE     750.000    
 BOUNDARY     16   LAYER   1   ROW     2   COL     1   RATE     750.000    
 BOUNDARY     17   LAYER   1   ROW     2   COL     2   RATE     750.000    
 BOUNDARY     18   LAYER   1   ROW     2   COL     3   RATE     750.000    
 BOUNDARY     19   LAYER   1   ROW     2   COL     4   RATE     750.000    
 BOUNDARY     20   LAYER   1   ROW     2   COL     5   RATE     750.000    
 BOUNDARY     21   LAYER   1   ROW     2   COL     6   RATE     750.000    
 BOUNDARY     22   LAYER   1   ROW     2   COL     7   RATE     750.000    
 BOUNDARY     23   LAYER   1   ROW     2   COL     8   RATE     750.000    
 BOUNDARY     24   LAYER   1   ROW     2   COL     9   RATE     750.000    
 BOUNDARY     25   LAYER   1   ROW     2   COL    10   RATE     750.000    
 BOUNDARY     26   LAYER   1   ROW     2   COL    11   RATE     750.000    
 BOUNDARY     27   LAYER   1   ROW     2   COL    12   RATE     750.000    
 BOUNDARY     28   LAYER   1   ROW     2   COL    13   RATE     750.000    
 BOUNDARY     29   LAYER   1   ROW     2   COL    14   RATE     750.000    
 BOUNDARY     30   LAYER   1   ROW     2   COL    15   RATE     750.000    
 BOUNDARY     31   LAYER   1   ROW     3   COL     1   RATE     750.000    
 BOUNDARY     32   LAYER   1   ROW     3   COL     2   RATE     750.000    
 BOUNDARY     33   LAYER   1   ROW     3   COL     3   RATE     750.000    
 BOUNDARY     34   LAYER   1   ROW     3   COL     4   RATE     750.000    
 BOUNDARY     35   LAYER   1   ROW     3   COL     5   RATE     750.000    
 BOUNDARY     36   LAYER   1   ROW     3   COL     6   RATE     750.000    
 BOUNDARY     37   LAYER   1   ROW     3   COL     7   RATE     750.000    
 BOUNDARY     38   LAYER   1   ROW     3   COL     8   RATE     750.000    
 BOUNDARY     39   LAYER   1   ROW     3   COL     9   RATE     750.000    
 BOUNDARY     40   LAYER   1   ROW     3   COL    10   RATE     750.000    
 BOUNDARY     41   LAYER   1   ROW     3   COL    11   RATE     750.000    
 BOUNDARY     42   LAYER   1   ROW     3   COL    12   RATE     750.000    
 BOUNDARY     43   LAYER   1   ROW     3   COL    13   RATE     750.000    
 BOUNDARY     44   LAYER   1   ROW     3   COL    14   RATE     750.000    
 BOUNDARY     45   LAYER   1   ROW     3   COL    15   RATE     750.000    
 BOUNDARY     47   LAYER   1   ROW     4   COL     2   RATE     750.000    
 BOUNDARY     48   LAYER   1   ROW     4   COL     3   RATE     750.000    
 BOUNDARY     49   LAYER   1   ROW     4   COL     4   RATE     750.000    
 BOUNDARY     50   LAYER   1   ROW     4   COL     5   RATE     750.000    
 BOUNDARY     51   LAYER   1   ROW     4   COL     6   RATE     750.000    
 BOUNDARY     52   LAYER   1   ROW     4   COL     7   RATE     750.000    
 BOUNDARY     53   LAYER   1   ROW     4   COL     8   RATE     750.000    
 BOUNDARY     54   LAYER   1   ROW     4   COL     9   RATE     750.000    
 BOUNDARY     55   LAYER   1   ROW     4   COL    10   RATE     750.000    
 BOUNDARY     56   LAYER   1   ROW     4   COL    11   RATE     750.000    
 BOUNDARY     57   LAYER   1   ROW     4   COL    12   RATE     750.000    
 BOUNDARY     58   LAYER   1   ROW     4   COL    13   RATE     750.000    
 BOUNDARY     59   LAYER   1   ROW     4   COL    14   RATE     750.000    
 BOUNDARY     60   LAYER   1   ROW     4   COL    15   RATE     750.000    
 BOUNDARY     62   LAYER   1   ROW     5   COL     2   RATE     750.000    
 BOUNDARY     63   LAYER   1   ROW     5   COL     3   RATE     750.000    
 BOUNDARY     64   LAYER   1   ROW     5   COL     4   RATE     750.000    
 BOUNDARY     65   LAYER   1   ROW     5   COL     5   RATE     750.000    
 BOUNDARY     66   LAYER   1   ROW     5   COL     6   RATE     750.000    
 BOUNDARY     67   LAYER   1   ROW     5   COL     7   RATE     750.000    
 BOUNDARY     68   LAYER   1   ROW     5   COL     8   RATE     750.000    
 BOUNDARY     69   LAYER   1   ROW     5   COL     9   RATE     750.000    
 BOUNDARY     70   LAYER   1   ROW     5   COL    10   RATE     750.000    
 BOUNDARY     71   LAYER   1   ROW     5   COL    11   RATE     750.000    
 BOUNDARY     72   LAYER   1   ROW     5   COL    12   RATE     750.000    
 BOUNDARY     73   LAYER   1   ROW     5   COL    13   RATE     750.000    
 BOUNDARY     74   LAYER   1   ROW     5   COL    14   RATE     750.000    
 BOUNDARY     75   LAYER   1   ROW     5   COL    15   RATE     750.000    
 BOUNDARY     77   LAYER   1   ROW     6   COL     2   RATE     750.000    
 BOUNDARY     78   LAYER   1   ROW     6   COL     3   RATE     750.000    
 BOUNDARY     79   LAYER   1   ROW     6   COL     4   RATE     750.000    
 BOUNDARY     80   LAYER   1   ROW     6   COL     5   RATE     750.000    
 BOUNDARY     81   LAYER   1   ROW     6   COL     6   RATE     750.000    
 BOUNDARY     82   LAYER   1   ROW     6   COL     7   RATE     750.000    
 BOUNDARY     83   LAYER   1   ROW     6   COL     8   RATE     750.000    
 BOUNDARY     84   LAYER   1   ROW     6   COL     9   RATE     750.000    
 BOUNDARY     85   LAYER   1   ROW     6   COL    10   RATE     750.000    
 BOUNDARY     86   LAYER   1   ROW     6   COL    11   RATE     750.000    
 BOUNDARY     87   LAYER   1   ROW     6   COL    12   RATE     750.000    
 BOUNDARY     88   LAYER   1   ROW     6   COL    13   RATE     750.000    
 BOUNDARY     89   LAYER   1   ROW     6   COL    14   RATE     750.000    
 BOUNDARY     90   LAYER   1   ROW     6   COL    15   RATE     750.000    
 BOUNDARY     91   LAYER   1   ROW     7   COL     1   RATE     750.000    
 BOUNDARY     92   LAYER   1   ROW     7   COL     2   RATE     750.000    
 BOUNDARY     93   LAYER   1   ROW     7   COL     3   RATE     750.000    
 BOUNDARY     94   LAYER   1   ROW     7   COL     4   RATE     750.000    
 BOUNDARY     95   LAYER   1   ROW     7   COL     5   RATE     750.000    
 BOUNDARY     96   LAYER   1   ROW     7   COL     6   RATE     750.000    
 BOUNDARY     97   LAYER   1   ROW     7   COL     7   RATE     750.000    
 BOUNDARY     98   LAYER   1   ROW     7   COL     8   RATE     750.000    
 BOUNDARY     99   LAYER   1   ROW     7   COL     9   RATE     750.000    
 BOUNDARY    100   LAYER   1   ROW     7   COL    10   RATE     750.000    
 BOUNDARY    101   LAYER   1   ROW     7   COL    11   RATE     750.000    
 BOUNDARY    102   LAYER   1   ROW     7   COL    12   RATE     750.000    
 BOUNDARY    103   LAYER   1   ROW     7   COL    13   RATE     750.000    
 BOUNDARY    104   LAYER   1   ROW     7   COL    14   RATE     750.000    
 BOUNDARY    105   LAYER   1   ROW     7   COL    15   RATE     750.000    
 BOUNDARY    106   LAYER   1   ROW     8   COL     1   RATE     750.000    
 BOUNDARY    107   LAYER   1   ROW     8   COL     2   RATE     750.000    
 BOUNDARY    108   LAYER   1   ROW     8   COL     3   RATE     750.000    
 BOUNDARY    109   LAYER   1   ROW     8   COL     4   RATE     750.000    
 BOUNDARY    110   LAYER   1   ROW     8   COL     5   RATE     750.000    
 BOUNDARY    111   LAYER   1   ROW     8   COL     6   RATE     750.000    
 BOUNDARY    112   LAYER   1   ROW     8   COL     7   RATE     750.000    
 BOUNDARY    113   LAYER   1   ROW     8   COL     8   RATE     750.000    
 BOUNDARY    114   LAYER   1   ROW     8   COL     9   RATE     750.000    
 BOUNDARY    115   LAYER   1   ROW     8   COL    10   RATE     750.000    
 BOUNDARY    116   LAYER   1   ROW     8   COL    11   RATE     750.000    
 BOUNDARY    117   LAYER   1   ROW     8   COL    12   RATE     750.000    
 BOUNDARY    118   LAYER   1   ROW     8   COL    13   RATE     750.000    
 BOUNDARY    119   LAYER   1   ROW     8   COL    14   RATE     750.000    
 BOUNDARY    120   LAYER   1   ROW     8   COL    15   RATE     750.000    
 BOUNDARY    121   LAYER   1   ROW     9   COL     1   RATE     750.000    
 BOUNDARY    122   LAYER   1   ROW     9   COL     2   RATE     750.000    
 BOUNDARY    123   LAYER   1   ROW     9   COL     3   RATE     750.000    
 BOUNDARY    124   LAYER   1   ROW     9   COL     4   RATE     750.000    
 BOUNDARY    125   LAYER   1   ROW     9   COL     5   RATE     750.000    
 BOUNDARY    126   LAYER   1   ROW     9   COL     6   RATE     750.000    
 BOUNDARY    127   LAYER   1   ROW     9   COL     7   RATE     750.000    
 BOUNDARY    128   LAYER   1   ROW     9   COL     8   RATE     750.000    
 BOUNDARY    129   LAYER   1   ROW     9   COL     9   RATE     750.000    
 BOUNDARY    130   LAYER   1   ROW     9   COL    10   RATE     750.000    
 BOUNDARY    131   LAYER   1   ROW     9   COL    11   RATE     750.000    
 BOUNDARY    132   LAYER   1   ROW     9   COL    12   RATE     750.000    
 BOUNDARY    133   LAYER   1   ROW     9   COL    13   RATE     750.000    
 BOUNDARY    134   LAYER   1   ROW     9   COL    14   RATE     750.000    
 BOUNDARY    135   LAYER   1   ROW     9   COL    15   RATE     750.000    
 BOUNDARY    137   LAYER   1   ROW    10   COL     2   RATE     750.000    
 BOUNDARY    138   LAYER   1   ROW    10   COL     3   RATE     750.000    
 BOUNDARY    139   LAYER   1   ROW    10   COL     4   RATE     750.000    
 BOUNDARY    140   LAYER   1   ROW    10   COL     5   RATE     750.000    
 BOUNDARY    141   LAYER   1   ROW    10   COL     6   RATE     750.000    
 BOUNDARY    142   LAYER   1   ROW    10   COL     7   RATE     750.000    
 BOUNDARY    143   LAYER   1   ROW    10   COL     8   RATE     750.000    
 BOUNDARY    144   LAYER   1   ROW    10   COL     9   RATE     750.000    
 BOUNDARY    145   LAYER   1   ROW    10   COL    10   RATE     750.000    
 BOUNDARY    146   LAYER   1   ROW    10   COL    11   RATE     750.000    
 BOUNDARY    147   LAYER   1   ROW    10   COL    12   RATE     750.000    
 BOUNDARY    148   LAYER   1   ROW    10   COL    13   RATE     750.000    
 BOUNDARY    149   LAYER   1   ROW    10   COL    14   RATE     750.000    
 BOUNDARY    150   LAYER   1   ROW    10   COL    15   RATE     750.000    
 UBDSV4 SAVING ET SEGS          ON UNIT   1017 AT TIME STEP      7, STRESS PERIOD      4

 ET SEGS            PERIOD  4   STEP  7
 BOUNDARY      1   LAYER   1   ROW     1   COL    13   RATE    -88.5733      ET-1
 BOUNDARY      2   LAYER   1   ROW     2   COL    13   RATE    -167.649      ET-2
 BOUNDARY      3   LAYER   1   ROW     3   COL    13   RATE    -232.128      ET-3
 BOUNDARY      4   LAYER   1   ROW     4   COL    13   RATE    -282.909      ET-4
 BOUNDARY      5   LAYER   1   ROW     5   COL    13   RATE    -287.682      ET-5
 BOUNDARY      6   LAYER   1   ROW     6   COL    13   RATE    -286.825      ET-6
 BOUNDARY      7   LAYER   1   ROW     7   COL    13   RATE    -218.520      ET-7
 BOUNDARY      8   LAYER   1   ROW     8   COL    13   RATE    -172.576      ET-8
 BOUNDARY      9   LAYER   1   ROW     9   COL    13   RATE    -114.082      ET-9
 BOUNDARY     10   LAYER   1   ROW    10   COL    13   RATE    -45.8363      ET-10
 BOUNDARY     11   LAYER   1   ROW     1   COL    12   RATE    -140.333      ET-1
 BOUNDARY     12   LAYER   1   ROW     2   COL    12   RATE    -245.486      ET-2
 BOUNDARY     13   LAYER   1   ROW     3   COL    12   RATE    -324.278      ET-3
 BOUNDARY     14   LAYER   1   ROW     4   COL    12   RATE    -401.921      ET-4
 BOUNDARY     15   LAYER   1   ROW     5   COL    12   RATE    -415.301      ET-5
 BOUNDARY     16   LAYER   1   ROW     6   COL    12   RATE    -414.414      ET-6
 BOUNDARY     17   LAYER   1   ROW     7   COL    12   RATE    -311.129      ET-7
 BOUNDARY     18   LAYER   1   ROW     8   COL    12   RATE    -241.184      ET-8
 BOUNDARY     19   LAYER   1   ROW     9   COL    12   RATE    -171.861      ET-9
 BOUNDARY     20   LAYER   1   ROW    10   COL    12   RATE    -76.2642      ET-10
 UBDSV4 SAVING CONSTANT HEADS   ON UNIT   1017 AT TIME STEP      7, STRESS PERIOD      4

 CONSTANT HEADS     PERIOD  4   STEP  7
 BOUNDARY      1   LAYER   1   ROW     1   COL     1   RATE     2627.08      CHD-1
 BOUNDARY      2   LAYER   1   ROW     4   COL     1   RATE     4715.34    
 BOUNDARY      3   LAYER   1   ROW     5   COL     1   RATE     836.375      CHD_GP
 BOUNDARY      4   LAYER   1   ROW     6   COL     1   RATE     4303.42      CHD_GP
 BOUNDARY      5   LAYER   1   ROW    10   COL     1   RATE     1748.17      CHD-10

 HEAD WILL BE SAVED ON UNIT 1018 AT END OF TIME STEP    7, STRESS PERIOD    4
WEL   no.    1 value from time series:  -13000.     for time:  6.400     to  6.600    
WEL   no.    2 value from time series:  -30000.     for time:  6.400     to  6.600    
RIV   no.    1 value from time series:   102.83     for time:  6.400     to  6.600    
RIV   no.    2 value from time series:   102.83     for time:  6.400     to  6.600    
RIV   no.    3 value from time series:   102.83     for time:  6.400     to  6.600    
RIV   no.    4 value from time series:   102.83     for time:  6.400     to  6.600    
RIV   no.    5 value from time series:   102.83     for time:  6.400     to  6.600    
RIV   no.    6 value from time series:   102.83     for time:  6.400     to  6.600    
RIV   no.    7 value from time series:   102.83     for time:  6.400     to  6.600    
RIV   no.    8 value from time series:   102.83     for time:  6.400     to  6.600    
RIV   no.    9 value from time series:   102.83     for time:  6.400     to  6.600    
RIV   no.   10 value from time series:   102.83     for time:  6.400     to  6.600    
EVT   no.    1 value from time series:   1139.1     for time:  6.400     to  6.600    
EVT   no.    2 value from time series:   2278.1     for time:  6.400     to  6.600    
EVT   no.    3 value from time series:   3417.2     for time:  6.400     to  6.600    
EVT   no.    4 value from time series:   4556.3     for time:  6.400     to  6.600    
EVT   no.   10 value from time series:   569.53     for time:  6.400     to  6.600    
EVT   no.   11 value from time series:   1139.1     for time:  6.400     to  6.600    
EVT   no.   12 value from time series:   2278.1     for time:  6.400     to  6.600    
EVT   no.   13 value from time series:   3417.2     for time:  6.400     to  6.600    
EVT   no.   14 value from time series:   4556.3     for time:  6.400     to  6.600    
EVT   no.   20 value from time series:   569.53     for time:  6.400     to  6.600    
WEL   no.    1 value from time series:  -13000.     for time:  6.400     to  6.600    
WEL   no.    2 value from time series:  -30000.     for time:  6.400     to  6.600    
RIV   no.    1 value from time series:   102.83     for time:  6.400     to  6.600    
RIV   no.    2 value from time series:   102.83     for time:  6.400     to  6.600    
RIV   no.    3 value from time series:   102.83     for time:  6.400     to  6.600    
RIV   no.    4 value from time series:   102.83     for time:  6.400     to  6.600    
RIV   no.    5 value from time series:   102.83     for time:  6.400     to  6.600    
RIV   no.    6 value from time series:   102.83     for time:  6.400     to  6.600    
RIV   no.    7 value from time series:   102.83     for time:  6.400     to  6.600    
RIV   no.    8 value from time series:   102.83     for time:  6.400     to  6.600    
RIV   no.    9 value from time series:   102.83     for time:  6.400     to  6.600    
RIV   no.   10 value from time series:   102.83     for time:  6.400     to  6.600    
EVT   no.    1 value from time series:   1139.1     for time:  6.400     to  6.600    
EVT   no.    2 value from time series:   2278.1     for time:  6.400     to  6.600    
EVT   no.    3 value from time series:   3417.2     for time:  6.400     to  6.600    
EVT   no.    4 value from time series:   4556.3     for time:  6.400     to  6.600    
EVT   no.   10 value from time series:   569.53     for time:  6.400     to  6.600    
EVT   no.   11 value from time series:   1139.1     for time:  6.400     to  6.600    
EVT   no.   12 value from time series:   2278.1     for time:  6.400     to  6.600    
EVT   no.   13 value from time series:   3417.2     for time:  6.400     to  6.600    
EVT   no.   14 value from time series:   4556.3     for time:  6.400     to  6.600    
EVT   no.   20 value from time series:   569.53     for time:  6.400     to  6.600    

 OUTPUT CONTROL FOR STRESS PERIOD    4   TIME STEP    8
    SAVE BUDGET
    SAVE HEAD
    SAVE HEAD FOR ALL LAYERS
 UBDSV1 SAVING      STORAGE(SS) ON UNIT   1017 AT TIME STEP      8, STRESS PERIOD      4
 UBDSV1 SAVING      STORAGE(SY) ON UNIT   1017 AT TIME STEP      8, STRESS PERIOD      4
 UBDSV1 SAVING FLOW RIGHT FACE  ON UNIT   1017 AT TIME STEP      8, STRESS PERIOD      4
 UBDSV1 SAVING FLOW FRONT FACE  ON UNIT   1017 AT TIME STEP      8, STRESS PERIOD      4
 UBDSV1 SAVING FLOW LOWER FACE  ON UNIT   1017 AT TIME STEP      8, STRESS PERIOD      4
 UBDSV4 SAVING WELLS NEAR RIVER ON UNIT   1017 AT TIME STEP      8, STRESS PERIOD      4

 WELLS NEAR RIVER   PERIOD  4   STEP  8
 BOUNDARY      1   LAYER   2   ROW     8   COL     4   RATE    -13000.0      WELL_2
 BOUNDARY      2   LAYER   2   ROW     3   COL     4   RATE    -30000.0      WELL_1
 UBDSV4 SAVING RIVER            ON UNIT   1017 AT TIME STEP      8, STRESS PERIOD      4

 RIVER              PERIOD  4   STEP  8
 BOUNDARY      1   LAYER   1   ROW     1   COL    15   RATE    -3831.20    
 BOUNDARY      2   LAYER   1   ROW     2   COL    15   RATE    -3813.69      RIV2
 BOUNDARY      3   LAYER   1   ROW     3   COL    15   RATE    -3787.44      RIV3
 BOUNDARY      4   LAYER   1   ROW     4   COL    15   RATE    -3760.08    
 BOUNDARY      5   LAYER   1   ROW     5   COL    15   RATE    -3738.82    
 BOUNDARY      6   LAYER   1   ROW     6   COL    15   RATE    -3738.17    
 BOUNDARY      7   LAYER   1   ROW     7   COL    15   RATE    -3758.57      RIVX
 BOUNDARY      8   LAYER   1   ROW     8   COL    15   RATE    -3788.86      RIVX
 BOUNDARY      9   LAYER   1   ROW     9   COL    15   RATE    -3820.53      RIVX
 BOUNDARY     10   LAYER   1   ROW    10   COL    15   RATE    -3843.17    

 GHB LAKES          PERIOD  4   STEP  8
 BOUNDARY      1   LAYER   1   ROW     3   COL     1   RATE    -7962.56    
 BOUNDARY      2   LAYER   1   ROW     7   COL     1   RATE     4287.60      GHB2_UPPER
 BOUNDARY      3   LAYER   1   ROW     7   COL     1   RATE    -11037.8      GHB2_LOWER
 UBDSV4 SAVING RECHARGE         ON UNIT   1017 AT TIME STEP      8, STRESS PERIOD      4

 RECHARGE           PERIOD  4   STEP  8
 BOUNDARY      2   LAYER   1   ROW     1   COL     2   RATE     750.000    
 BOUNDARY      3   LAYER   1   ROW     1   COL     3   RATE     750.000    
 BOUNDARY      4   LAYER   1   ROW     1   COL     4   RATE     750.000    
 BOUNDARY      5   LAYER   1   ROW     1   COL     5   RATE     750.000    
 BOUNDARY      6   LAYER   1   ROW     1   COL     6   RATE     750.000    
 BOUNDARY      7   LAYER   1   ROW     1   COL     7   RATE     750.000    
 BOUNDARY      8   LAYER   1   ROW     1   COL     8   RATE     750.000    
 BOUNDARY      9   LAYER   1   ROW     1   COL     9   RATE     750.000    
 BOUNDARY     10   LAYER   1   ROW     1   COL    10   RATE     750.000    
 BOUNDARY     11   LAYER   1   ROW     1   COL    11   RATE     750.000    
 BOUNDARY     12   LAYER   1   ROW     1   COL    12   RATE     750.000    
 BOUNDARY     13   LAYER   1   ROW     1   COL    13   RATE     750.000    
 BOUNDARY     14   LAYER   1   ROW     1   COL    14   RATE     750.000    
 BOUNDARY     15   LAYER   1   ROW     1   COL    15   RATE     750.000    
 BOUNDARY     16   LAYER   1   ROW     2   COL     1   RATE     750.000    
 BOUNDARY     17   LAYER   1   ROW     2   COL     2   RATE     750.000    
 BOUNDARY     18   LAYER   1   ROW     2   COL     3   RATE     750.000    
 BOUNDARY     19   LAYER   1   ROW     2   COL     4   RATE     750.000    
 BOUNDARY     20   LAYER   1   ROW     2   COL     5   RATE     750.000    
 BOUNDARY     21   LAYER   1   ROW     2   COL     6   RATE     750.000    
 BOUNDARY     22   LAYER   1   ROW     2   COL     7   RATE     750.000    
 BOUNDARY     23   LAYER   1   ROW     2   COL     8   RATE     750.000    
 BOUNDARY     24   LAYER   1   ROW     2   COL     9   RATE     750.000    
 BOUNDARY     25   LAYER   1   ROW     2   COL    10   RATE     750.000    
 BOUNDARY     26   LAYER   1   ROW     2   COL    11   RATE     750.000    
 BOUNDARY     27   LAYER   1   ROW     2   COL    12   RATE     750.000    
 BOUNDARY     28   LAYER   1   ROW     2   COL    13   RATE     750.000    
 BOUNDARY     29   LAYER   1   ROW     2   COL    14   RATE     750.000    
 BOUNDARY     30   LAYER   1   ROW     2   COL    15   RATE     750.000    
 BOUNDARY     31   LAYER   1   ROW     3   COL     1   RATE     750.000    
 BOUNDARY     32   LAYER   1   ROW     3   COL     2   RATE     750.000    
 BOUNDARY     33   LAYER   1   ROW     3   COL     3   RATE     750.000    
 BOUNDARY     34   LAYER   1   ROW     3   COL     4   RATE     750.000    
 BOUNDARY     35   LAYER   1   ROW     3   COL     5   RATE     750.000    
 BOUNDARY     36   LAYER   1   ROW     3   COL     6   RATE     750.000    
 BOUNDARY     37   LAYER   1   ROW     3   COL     7   RATE     750.000    
 BOUNDARY     38   LAYER   1   ROW     3   COL     8   RATE     750.000    
 BOUNDARY     39   LAYER   1   ROW     3   COL     9   RATE     750.000    
 BOUNDARY     40   LAYER   1   ROW     3   COL    10   RATE     750.000    
 BOUNDARY     41   LAYER   1   ROW     3   COL    11   RATE     750.000    
 BOUNDARY     42   LAYER   1   ROW     3   COL    12   RATE     750.000    
 BOUNDARY     43   LAYER   1   ROW     3   COL    13   RATE     750.000    
 BOUNDARY     44   LAYER   1   ROW     3   COL    14   RATE     750.000    
 BOUNDARY     45   LAYER   1   ROW     3   COL    15   RATE     750.000    
 BOUNDARY     47   LAYER   1   ROW     4   COL     2   RATE     750.000    
 BOUNDARY     48   LAYER   1   ROW     4   COL     3   RATE     750.000    
 BOUNDARY     49   LAYER   1   ROW     4   COL     4   RATE     750.000    
 BOUNDARY     50   LAYER   1   ROW     4   COL     5   RATE     750.000    
 BOUNDARY     51   LAYER   1   ROW     4   COL     6   RATE     750.000    
 BOUNDARY     52   LAYER   1   ROW     4   COL     7   RATE     750.000    
 BOUNDARY     53   LAYER   1   ROW     4   COL     8   RATE     750.000    
 BOUNDARY     54   LAYER   1   ROW     4   COL     9   RATE     750.000    
 BOUNDARY     55   LAYER   1   ROW     4   COL    10   RATE     750.000    
 BOUNDARY     56   LAYER   1   ROW     4   COL    11   RATE     750.000    
 BOUNDARY     57   LAYER   1   ROW     4   COL    12   RATE     750.000    
 BOUNDARY     58   LAYER   1   ROW     4   COL    13   RATE     750.000    
 BOUNDARY     59   LAYER   1   ROW     4   COL    14   RATE     750.000    
 BOUNDARY     60   LAYER   1   ROW     4   COL    15   RATE     750.000    
 BOUNDARY     62   LAYER   1   ROW     5   COL     2   RATE     750.000    
 BOUNDARY     63   LAYER   1   ROW     5   COL     3   RATE     750.000    
 BOUNDARY     64   LAYER   1   ROW     5   COL     4   RATE     750.000    
 BOUNDARY     65   LAYER   1   ROW     5   COL     5   RATE     750.000    
 BOUNDARY     66   LAYER   1   ROW     5   COL     6   RATE     750.000    
 BOUNDARY     67   LAYER   1   ROW     5   COL     7   RATE     750.000    
 BOUNDARY     68   LAYER   1   ROW     5   COL     8   RATE     750.000    
 BOUNDARY     69   LAYER   1   ROW     5   COL     9   RATE     750.000    
 BOUNDARY     70   LAYER   1   ROW     5   COL    10   RATE     750.000    
 BOUNDARY     71   LAYER   1   ROW     5   COL    11   RATE     750.000    
 BOUNDARY     72   LAYER   1   ROW     5   COL    12   RATE     750.000    
 BOUNDARY     73   LAYER   1   ROW     5   COL    13   RATE     750.000    
 BOUNDARY     74   LAYER   1   ROW     5   COL    14   RATE     750.000    
 BOUNDARY     75   LAYER   1   ROW     5   COL    15   RATE     750.000    
 BOUNDARY     77   LAYER   1   ROW     6   COL     2   RATE     750.000    
 BOUNDARY     78   LAYER   1   ROW     6   COL     3   RATE     750.000    
 BOUNDARY     79   LAYER   1   ROW     6   COL     4   RATE     750.000    
 BOUNDARY     80   LAYER   1   ROW     6   COL     5   RATE     750.000    
 BOUNDARY     81   LAYER   1   ROW     6   COL     6   RATE     750.000    
 BOUNDARY     82   LAYER   1   ROW     6   COL     7   RATE     750.000    
 BOUNDARY     83   LAYER   1   ROW     6   COL     8   RATE     750.000    
 BOUNDARY     84   LAYER   1   ROW     6   COL     9   RATE     750.000    
 BOUNDARY     85   LAYER   1   ROW     6   COL    10   RATE     750.000    
 BOUNDARY     86   LAYER   1   ROW     6   COL    11   RATE     750.000    
 BOUNDARY     87   LAYER   1   ROW     6   COL    12   RATE     750.000    
 BOUNDARY     88   LAYER   1   ROW     6   COL    13   RATE     750.000    
 BOUNDARY     89   LAYER   1   ROW     6   COL    14   RATE     750.000    
 BOUNDARY     90   LAYER   1   ROW     6   COL    15   RATE     750.000    
 BOUNDARY     91   LAYER   1   ROW     7   COL     1   RATE     750.000    
 BOUNDARY     92   LAYER   1   ROW     7   COL     2   RATE     750.000    
 BOUNDARY     93   LAYER   1   ROW     7   COL     3   RATE     750.000    
 BOUNDARY     94   LAYER   1   ROW     7   COL     4   RATE     750.000    
 BOUNDARY     95   LAYER   1   ROW     7   COL     5   RATE     750.000    
 BOUNDARY     96   LAYER   1   ROW     7   COL     6   RATE     750.000    
 BOUNDARY     97   LAYER   1   ROW     7   COL     7   RATE     750.000    
 BOUNDARY     98   LAYER   1   ROW     7   COL     8   RATE     750.000    
 BOUNDARY     99   LAYER   1   ROW     7   COL     9   RATE     750.000    
 BOUNDARY    100   LAYER   1   ROW     7   COL    10   RATE     750.000    
 BOUNDARY    101   LAYER   1   ROW     7   COL    11   RATE     750.000    
 BOUNDARY    102   LAYER   1   ROW     7   COL    12   RATE     750.000    
 BOUNDARY    103   LAYER   1   ROW     7   COL    13   RATE     750.000    
 BOUNDARY    104   LAYER   1   ROW     7   COL    14   RATE     750.000    
 BOUNDARY    105   LAYER   1   ROW     7   COL    15   RATE     750.000    
 BOUNDARY    106   LAYER   1   ROW     8   COL     1   RATE     750.000    
 BOUNDARY    107   LAYER   1   ROW     8   COL     2   RATE     750.000    
 BOUNDARY    108   LAYER   1   ROW     8   COL     3   RATE     750.000    
 BOUNDARY    109   LAYER   1   ROW     8   COL     4   RATE     750.000    
 BOUNDARY    110   LAYER   1   ROW     8   COL     5   RATE     750.000    
 BOUNDARY    111   LAYER   1   ROW     8   COL     6   RATE     750.000    
 BOUNDARY    112   LAYER   1   ROW     8   COL     7   RATE     750.000    
 BOUNDARY    113   LAYER   1   ROW     8   COL     8   RATE     750.000    
 BOUNDARY    114   LAYER   1   ROW     8   COL     9   RATE     750.000    
 BOUNDARY    115   LAYER   1   ROW     8   COL    10   RATE     750.000    
 BOUNDARY    116   LAYER   1   ROW     8   COL    11   RATE     750.000    
 BOUNDARY    117   LAYER   1   ROW     8   COL    12   RATE     750.000    
 BOUNDARY    118   LAYER   1   ROW     8   COL    13   RATE     750.000    
 BOUNDARY    119   LAYER   1   ROW     8   COL    14   RATE     750.000    
 BOUNDARY    120   LAYER   1   ROW     8   COL    15   RATE     750.000    
 BOUNDARY    121   LAYER   1   ROW     9   COL     1   RATE     750.000    
 BOUNDARY    122   LAYER   1   ROW     9   COL     2   RATE     750.000    
 BOUNDARY    123   LAYER   1   ROW     9   COL     3   RATE     750.000    
 BOUNDARY    124   LAYER   1   ROW     9   COL     4   RATE     750.000    
 BOUNDARY    125   LAYER   1   ROW     9   COL     5   RATE     750.000    
 BOUNDARY    126   LAYER   1   ROW     9   COL     6   RATE     750.000    
 BOUNDARY    127   LAYER   1   ROW     9   COL     7   RATE     750.000    
 BOUNDARY    128   LAYER   1   ROW     9   COL     8   RATE     750.000    
 BOUNDARY    129   LAYER   1   ROW     9   COL     9   RATE     750.000    
 BOUNDARY    130   LAYER   1   ROW     9   COL    10   RATE     750.000    
 BOUNDARY    131   LAYER   1   ROW     9   COL    11   RATE     750.000    
 BOUNDARY    132   LAYER   1   ROW     9   COL    12   RATE     750.000    
 BOUNDARY    133   LAYER   1   ROW     9   COL    13   RATE     750.000    
 BOUNDARY    134   LAYER   1   ROW     9   COL    14   RATE     750.000    
 BOUNDARY    135   LAYER   1   ROW     9   COL    15   RATE     750.000    
 BOUNDARY    137   LAYER   1   ROW    10   COL     2   RATE     750.000    
 BOUNDARY    138   LAYER   1   ROW    10   COL     3   RATE     750.000    
 BOUNDARY    139   LAYER   1   ROW    10   COL     4   RATE     750.000    
 BOUNDARY    140   LAYER   1   ROW    10   COL     5   RATE     750.000    
 BOUNDARY    141   LAYER   1   ROW    10   COL     6   RATE     750.000    
 BOUNDARY    142   LAYER   1   ROW    10   COL     7   RATE     750.000    
 BOUNDARY    143   LAYER   1   ROW    10   COL     8   RATE     750.000    
 BOUNDARY    144   LAYER   1   ROW    10   COL     9   RATE     750.000    
 BOUNDARY    145   LAYER   1   ROW    10   COL    10   RATE     750.000    
 BOUNDARY    146   LAYER   1   ROW    10   COL    11   RATE     750.000    
 BOUNDARY    147   LAYER   1   ROW    10   COL    12   RATE     750.000    
 BOUNDARY    148   LAYER   1   ROW    10   COL    13   RATE     750.000    
 BOUNDARY    149   LAYER   1   ROW    10   COL    14   RATE     750.000    
 BOUNDARY    150   LAYER   1   ROW    10   COL    15   RATE     750.000    
 UBDSV4 SAVING ET SEGS          ON UNIT   1017 AT TIME STEP      8, STRESS PERIOD      4

 ET SEGS            PERIOD  4   STEP  8
 BOUNDARY      1   LAYER   1   ROW     1   COL    13   RATE    -90.0303      ET-1
 BOUNDARY      2   LAYER   1   ROW     2   COL    13   RATE    -170.411      ET-2
 BOUNDARY      3   LAYER   1   ROW     3   COL    13   RATE    -235.968      ET-3
 BOUNDARY      4   LAYER   1   ROW     4   COL    13   RATE    -287.616      ET-4
 BOUNDARY      5   LAYER   1   ROW     5   COL    13   RATE    -288.243      ET-5
 BOUNDARY      6   LAYER   1   ROW     6   COL    13   RATE    -287.387      ET-6
 BOUNDARY      7   LAYER   1   ROW     7   COL    13   RATE    -218.915      ET-7
 BOUNDARY      8   LAYER   1   ROW     8   COL    13   RATE    -172.859      ET-8
 BOUNDARY      9   LAYER   1   ROW     9   COL    13   RATE    -114.253      ET-9
 BOUNDARY     10   LAYER   1   ROW    10   COL    13   RATE    -46.5895      ET-10
 BOUNDARY     11   LAYER   1   ROW     1   COL    12   RATE    -142.837      ET-1
 BOUNDARY     12   LAYER   1   ROW     2   COL    12   RATE    -249.919      ET-2
 BOUNDARY     13   LAYER   1   ROW     3   COL    12   RATE    -329.479      ET-3
 BOUNDARY     14   LAYER   1   ROW     4   COL    12   RATE    -408.381      ET-4
 BOUNDARY     15   LAYER   1   ROW     5   COL    12   RATE    -415.849      ET-5
 BOUNDARY     16   LAYER   1   ROW     6   COL    12   RATE    -414.963      ET-6
 BOUNDARY     17   LAYER   1   ROW     7   COL    12   RATE    -311.515      ET-7
 BOUNDARY     18   LAYER   1   ROW     8   COL    12   RATE    -241.461      ET-8
 BOUNDARY     19   LAYER   1   ROW     9   COL    12   RATE    -172.409      ET-9
 BOUNDARY     20   LAYER   1   ROW    10   COL    12   RATE    -77.6154      ET-10
 UBDSV4 SAVING CONSTANT HEADS   ON UNIT   1017 AT TIME STEP      8, STRESS PERIOD      4

 CONSTANT HEADS     PERIOD  4   STEP  8
 BOUNDARY      1   LAYER   1   ROW     1   COL     1   RATE     2627.21      CHD-1
 BOUNDARY      2   LAYER   1   ROW     4   COL     1   RATE     4715.98    
 BOUNDARY      3   LAYER   1   ROW     5   COL     1   RATE     837.267      CHD_GP
 BOUNDARY      4   LAYER   1   ROW     6   COL     1   RATE     4303.58      CHD_GP
 BOUNDARY      5   LAYER   1   ROW    10   COL     1   RATE     1747.23      CHD-10

 HEAD WILL BE SAVED ON UNIT 1018 AT END OF TIME STEP    8, STRESS PERIOD    4
WEL   no.    1 value from time series:  -13400.     for time:  6.600     to  6.800    
WEL   no.    2 value from time series:  -30000.     for time:  6.600     to  6.800    
RIV   no.    1 value from time series:   102.77     for time:  6.600     to  6.800    
RIV   no.    2 value from time series:   102.77     for time:  6.600     to  6.800    
RIV   no.    3 value from time series:   102.77     for time:  6.600     to  6.800    
RIV   no.    4 value from time series:   102.77     for time:  6.600     to  6.800    
RIV   no.    5 value from time series:   102.77     for time:  6.600     to  6.800    
RIV   no.    6 value from time series:   102.77     for time:  6.600     to  6.800    
RIV   no.    7 value from time series:   102.77     for time:  6.600     to  6.800    
RIV   no.    8 value from time series:   102.77     for time:  6.600     to  6.800    
RIV   no.    9 value from time series:   102.77     for time:  6.600     to  6.800    
RIV   no.   10 value from time series:   102.77     for time:  6.600     to  6.800    
EVT   no.    1 value from time series:   1155.9     for time:  6.600     to  6.800    
EVT   no.    2 value from time series:   2311.9     for time:  6.600     to  6.800    
EVT   no.    3 value from time series:   3467.8     for time:  6.600     to  6.800    
EVT   no.    4 value from time series:   4623.8     for time:  6.600     to  6.800    
EVT   no.   10 value from time series:   577.97     for time:  6.600     to  6.800    
EVT   no.   11 value from time series:   1155.9     for time:  6.600     to  6.800    
EVT   no.   12 value from time series:   2311.9     for time:  6.600     to  6.800    
EVT   no.   13 value from time series:   3467.8     for time:  6.600     to  6.800    
EVT   no.   14 value from time series:   4623.8     for time:  6.600     to  6.800    
EVT   no.   20 value from time series:   577.97     for time:  6.600     to  6.800    
WEL   no.    1 value from time series:  -13400.     for time:  6.600     to  6.800    
WEL   no.    2 value from time series:  -30000.     for time:  6.600     to  6.800    
RIV   no.    1 value from time series:   102.77     for time:  6.600     to  6.800    
RIV   no.    2 value from time series:   102.77     for time:  6.600     to  6.800    
RIV   no.    3 value from time series:   102.77     for time:  6.600     to  6.800    
RIV   no.    4 value from time series:   102.77     for time:  6.600     to  6.800    
RIV   no.    5 value from time series:   102.77     for time:  6.600     to  6.800    
RIV   no.    6 value from time series:   102.77     for time:  6.600     to  6.800    
RIV   no.    7 value from time series:   102.77     for time:  6.600     to  6.800    
RIV   no.    8 value from time series:   102.77     for time:  6.600     to  6.800    
RIV   no.    9 value from time series:   102.77     for time:  6.600     to  6.800    
RIV   no.   10 value from time series:   102.77     for time:  6.600     to  6.800    
EVT   no.    1 value from time series:   1155.9     for time:  6.600     to  6.800    
EVT   no.    2 value from time series:   2311.9     for time:  6.600     to  6.800    
EVT   no.    3 value from time series:   3467.8     for time:  6.600     to  6.800    
EVT   no.    4 value from time series:   4623.8     for time:  6.600     to  6.800    
EVT   no.   10 value from time series:   577.97     for time:  6.600     to  6.800    
EVT   no.   11 value from time series:   1155.9     for time:  6.600     to  6.800    
EVT   no.   12 value from time series:   2311.9     for time:  6.600     to  6.800    
EVT   no.   13 value from time series:   3467.8     for time:  6.600     to  6.800    
EVT   no.   14 value from time series:   4623.8     for time:  6.600     to  6.800    
EVT   no.   20 value from time series:   577.97     for time:  6.600     to  6.800    

 OUTPUT CONTROL FOR STRESS PERIOD    4   TIME STEP    9
    SAVE BUDGET
    SAVE HEAD
    SAVE HEAD FOR ALL LAYERS
 UBDSV1 SAVING      STORAGE(SS) ON UNIT   1017 AT TIME STEP      9, STRESS PERIOD      4
 UBDSV1 SAVING      STORAGE(SY) ON UNIT   1017 AT TIME STEP      9, STRESS PERIOD      4
 UBDSV1 SAVING FLOW RIGHT FACE  ON UNIT   1017 AT TIME STEP      9, STRESS PERIOD      4
 UBDSV1 SAVING FLOW FRONT FACE  ON UNIT   1017 AT TIME STEP      9, STRESS PERIOD      4
 UBDSV1 SAVING FLOW LOWER FACE  ON UNIT   1017 AT TIME STEP      9, STRESS PERIOD      4
 UBDSV4 SAVING WELLS NEAR RIVER ON UNIT   1017 AT TIME STEP      9, STRESS PERIOD      4

 WELLS NEAR RIVER   PERIOD  4   STEP  9
 BOUNDARY      1   LAYER   2   ROW     8   COL     4   RATE    -13400.0      WELL_2
 BOUNDARY      2   LAYER   2   ROW     3   COL     4   RATE    -30000.0      WELL_1
 UBDSV4 SAVING RIVER            ON UNIT   1017 AT TIME STEP      9, STRESS PERIOD      4

 RIVER              PERIOD  4   STEP  9
 BOUNDARY      1   LAYER   1   ROW     1   COL    15   RATE    -4209.04    
 BOUNDARY      2   LAYER   1   ROW     2   COL    15   RATE    -4191.51      RIV2
 BOUNDARY      3   LAYER   1   ROW     3   COL    15   RATE    -4165.25      RIV3
 BOUNDARY      4   LAYER   1   ROW     4   COL    15   RATE    -4137.87    
 BOUNDARY      5   LAYER   1   ROW     5   COL    15   RATE    -4116.60    
 BOUNDARY      6   LAYER   1   ROW     6   COL    15   RATE    -4115.95    
 BOUNDARY      7   LAYER   1   ROW     7   COL    15   RATE    -4136.36      RIVX
 BOUNDARY      8   LAYER   1   ROW     8   COL    15   RATE    -4166.67      RIVX
 BOUNDARY      9   LAYER   1   ROW     9   COL    15   RATE    -4198.37      RIVX
 BOUNDARY     10   LAYER   1   ROW    10   COL    15   RATE    -4221.02    

 GHB LAKES          PERIOD  4   STEP  9
 BOUNDARY      1   LAYER   1   ROW     3   COL     1   RATE    -7967.44    
 BOUNDARY      2   LAYER   1   ROW     7   COL     1   RATE     4283.30      GHB2_UPPER
 BOUNDARY      3   LAYER   1   ROW     7   COL     1   RATE    -11039.4      GHB2_LOWER
 UBDSV4 SAVING RECHARGE         ON UNIT   1017 AT TIME STEP      9, STRESS PERIOD      4

 RECHARGE           PERIOD  4   STEP  9
 BOUNDARY      2   LAYER   1   ROW     1   COL     2   RATE     750.000    
 BOUNDARY      3   LAYER   1   ROW     1   COL     3   RATE     750.000    
 BOUNDARY      4   LAYER   1   ROW     1   COL     4   RATE     750.000    
 BOUNDARY      5   LAYER   1   ROW     1   COL     5   RATE     750.000    
 BOUNDARY      6   LAYER   1   ROW     1   COL     6   RATE     750.000    
 BOUNDARY      7   LAYER   1   ROW     1   COL     7   RATE     750.000    
 BOUNDARY      8   LAYER   1   ROW     1   COL     8   RATE     750.000    
 BOUNDARY      9   LAYER   1   ROW     1   COL     9   RATE     750.000    
 BOUNDARY     10   LAYER   1   ROW     1   COL    10   RATE     750.000    
 BOUNDARY     11   LAYER   1   ROW     1   COL    11   RATE     750.000    
 BOUNDARY     12   LAYER   1   ROW     1   COL    12   RATE     750.000    
 BOUNDARY     13   LAYER   1   ROW     1   COL    13   RATE     750.000    
 BOUNDARY     14   LAYER   1   ROW     1   COL    14   RATE     750.000    
 BOUNDARY     15   LAYER   1   ROW     1   COL    15   RATE     750.000    
 BOUNDARY     16   LAYER   1   ROW     2   COL     1   RATE     750.000    
 BOUNDARY     17   LAYER   1   ROW     2   COL     2   RATE     750.000    
 BOUNDARY     18   LAYER   1   ROW     2   COL     3   RATE     750.000    
 BOUNDARY     19   LAYER   1   ROW     2   COL     4   RATE     750.000    
 BOUNDARY     20   LAYER   1   ROW     2   COL     5   RATE     750.000    
 BOUNDARY     21   LAYER   1   ROW     2   COL     6   RATE     750.000    
 BOUNDARY     22   LAYER   1   ROW     2   COL     7   RATE     750.000    
 BOUNDARY     23   LAYER   1   ROW     2   COL     8   RATE     750.000    
 BOUNDARY     24   LAYER   1   ROW     2   COL     9   RATE     750.000    
 BOUNDARY     25   LAYER   1   ROW     2   COL    10   RATE     750.000    
 BOUNDARY     26   LAYER   1   ROW     2   COL    11   RATE     750.000    
 BOUNDARY     27   LAYER   1   ROW     2   COL    12   RATE     750.000    
 BOUNDARY     28   LAYER   1   ROW     2   COL    13   RATE     750.000    
 BOUNDARY     29   LAYER   1   ROW     2   COL    14   RATE     750.000    
 BOUNDARY     30   LAYER   1   ROW     2   COL    15   RATE     750.000    
 BOUNDARY     31   LAYER   1   ROW     3   COL     1   RATE     750.000    
 BOUNDARY     32   LAYER   1   ROW     3   COL     2   RATE     750.000    
 BOUNDARY     33   LAYER   1   ROW     3   COL     3   RATE     750.000    
 BOUNDARY     34   LAYER   1   ROW     3   COL     4   RATE     750.000    
 BOUNDARY     35   LAYER   1   ROW     3   COL     5   RATE     750.000    
 BOUNDARY     36   LAYER   1   ROW     3   COL     6   RATE     750.000    
 BOUNDARY     37   LAYER   1   ROW     3   COL     7   RATE     750.000    
 BOUNDARY     38   LAYER   1   ROW     3   COL     8   RATE     750.000    
 BOUNDARY     39   LAYER   1   ROW     3   COL     9   RATE     750.000    
 BOUNDARY     40   LAYER   1   ROW     3   COL    10   RATE     750.000    
 BOUNDARY     41   LAYER   1   ROW     3   COL    11   RATE     750.000    
 BOUNDARY     42   LAYER   1   ROW     3   COL    12   RATE     750.000    
 BOUNDARY     43   LAYER   1   ROW     3   COL    13   RATE     750.000    
 BOUNDARY     44   LAYER   1   ROW     3   COL    14   RATE     750.000    
 BOUNDARY     45   LAYER   1   ROW     3   COL    15   RATE     750.000    
 BOUNDARY     47   LAYER   1   ROW     4   COL     2   RATE     750.000    
 BOUNDARY     48   LAYER   1   ROW     4   COL     3   RATE     750.000    
 BOUNDARY     49   LAYER   1   ROW     4   COL     4   RATE     750.000    
 BOUNDARY     50   LAYER   1   ROW     4   COL     5   RATE     750.000    
 BOUNDARY     51   LAYER   1   ROW     4   COL     6   RATE     750.000    
 BOUNDARY     52   LAYER   1   ROW     4   COL     7   RATE     750.000    
 BOUNDARY     53   LAYER   1   ROW     4   COL     8   RATE     750.000    
 BOUNDARY     54   LAYER   1   ROW     4   COL     9   RATE     750.000    
 BOUNDARY     55   LAYER   1   ROW     4   COL    10   RATE     750.000    
 BOUNDARY     56   LAYER   1   ROW     4   COL    11   RATE     750.000    
 BOUNDARY     57   LAYER   1   ROW     4   COL    12   RATE     750.000    
 BOUNDARY     58   LAYER   1   ROW     4   COL    13   RATE     750.000    
 BOUNDARY     59   LAYER   1   ROW     4   COL    14   RATE     750.000    
 BOUNDARY     60   LAYER   1   ROW     4   COL    15   RATE     750.000    
 BOUNDARY     62   LAYER   1   ROW     5   COL     2   RATE     750.000    
 BOUNDARY     63   LAYER   1   ROW     5   COL     3   RATE     750.000    
 BOUNDARY     64   LAYER   1   ROW     5   COL     4   RATE     750.000    
 BOUNDARY     65   LAYER   1   ROW     5   COL     5   RATE     750.000    
 BOUNDARY     66   LAYER   1   ROW     5   COL     6   RATE     750.000    
 BOUNDARY     67   LAYER   1   ROW     5   COL     7   RATE     750.000    
 BOUNDARY     68   LAYER   1   ROW     5   COL     8   RATE     750.000    
 BOUNDARY     69   LAYER   1   ROW     5   COL     9   RATE     750.000    
 BOUNDARY     70   LAYER   1   ROW     5   COL    10   RATE     750.000    
 BOUNDARY     71   LAYER   1   ROW     5   COL    11   RATE     750.000    
 BOUNDARY     72   LAYER   1   ROW     5   COL    12   RATE     750.000    
 BOUNDARY     73   LAYER   1   ROW     5   COL    13   RATE     750.000    
 BOUNDARY     74   LAYER   1   ROW     5   COL    14   RATE     750.000    
 BOUNDARY     75   LAYER   1   ROW     5   COL    15   RATE     750.000    
 BOUNDARY     77   LAYER   1   ROW     6   COL     2   RATE     750.000    
 BOUNDARY     78   LAYER   1   ROW     6   COL     3   RATE     750.000    
 BOUNDARY     79   LAYER   1   ROW     6   COL     4   RATE     750.000    
 BOUNDARY     80   LAYER   1   ROW     6   COL     5   RATE     750.000    
 BOUNDARY     81   LAYER   1   ROW     6   COL     6   RATE     750.000    
 BOUNDARY     82   LAYER   1   ROW     6   COL     7   RATE     750.000    
 BOUNDARY     83   LAYER   1   ROW     6   COL     8   RATE     750.000    
 BOUNDARY     84   LAYER   1   ROW     6   COL     9   RATE     750.000    
 BOUNDARY     85   LAYER   1   ROW     6   COL    10   RATE     750.000    
 BOUNDARY     86   LAYER   1   ROW     6   COL    11   RATE     750.000    
 BOUNDARY     87   LAYER   1   ROW     6   COL    12   RATE     750.000    
 BOUNDARY     88   LAYER   1   ROW     6   COL    13   RATE     750.000    
 BOUNDARY     89   LAYER   1   ROW     6   COL    14   RATE     750.000    
 BOUNDARY     90   LAYER   1   ROW     6   COL    15   RATE     750.000    
 BOUNDARY     91   LAYER   1   ROW     7   COL     1   RATE     750.000    
 BOUNDARY     92   LAYER   1   ROW     7   COL     2   RATE     750.000    
 BOUNDARY     93   LAYER   1   ROW     7   COL     3   RATE     750.000    
 BOUNDARY     94   LAYER   1   ROW     7   COL     4   RATE     750.000    
 BOUNDARY     95   LAYER   1   ROW     7   COL     5   RATE     750.000    
 BOUNDARY     96   LAYER   1   ROW     7   COL     6   RATE     750.000    
 BOUNDARY     97   LAYER   1   ROW     7   COL     7   RATE     750.000    
 BOUNDARY     98   LAYER   1   ROW     7   COL     8   RATE     750.000    
 BOUNDARY     99   LAYER   1   ROW     7   COL     9   RATE     750.000    
 BOUNDARY    100   LAYER   1   ROW     7   COL    10   RATE     750.000    
 BOUNDARY    101   LAYER   1   ROW     7   COL    11   RATE     750.000    
 BOUNDARY    102   LAYER   1   ROW     7   COL    12   RATE     750.000    
 BOUNDARY    103   LAYER   1   ROW     7   COL    13   RATE     750.000    
 BOUNDARY    104   LAYER   1   ROW     7   COL    14   RATE     750.000    
 BOUNDARY    105   LAYER   1   ROW     7   COL    15   RATE     750.000    
 BOUNDARY    106   LAYER   1   ROW     8   COL     1   RATE     750.000    
 BOUNDARY    107   LAYER   1   ROW     8   COL     2   RATE     750.000    
 BOUNDARY    108   LAYER   1   ROW     8   COL     3   RATE     750.000    
 BOUNDARY    109   LAYER   1   ROW     8   COL     4   RATE     750.000    
 BOUNDARY    110   LAYER   1   ROW     8   COL     5   RATE     750.000    
 BOUNDARY    111   LAYER   1   ROW     8   COL     6   RATE     750.000    
 BOUNDARY    112   LAYER   1   ROW     8   COL     7   RATE     750.000    
 BOUNDARY    113   LAYER   1   ROW     8   COL     8   RATE     750.000    
 BOUNDARY    114   LAYER   1   ROW     8   COL     9   RATE     750.000    
 BOUNDARY    115   LAYER   1   ROW     8   COL    10   RATE     750.000    
 BOUNDARY    116   LAYER   1   ROW     8   COL    11   RATE     750.000    
 BOUNDARY    117   LAYER   1   ROW     8   COL    12   RATE     750.000    
 BOUNDARY    118   LAYER   1   ROW     8   COL    13   RATE     750.000    
 BOUNDARY    119   LAYER   1   ROW     8   COL    14   RATE     750.000    
 BOUNDARY    120   LAYER   1   ROW     8   COL    15   RATE     750.000    
 BOUNDARY    121   LAYER   1   ROW     9   COL     1   RATE     750.000    
 BOUNDARY    122   LAYER   1   ROW     9   COL     2   RATE     750.000    
 BOUNDARY    123   LAYER   1   ROW     9   COL     3   RATE     750.000    
 BOUNDARY    124   LAYER   1   ROW     9   COL     4   RATE     750.000    
 BOUNDARY    125   LAYER   1   ROW     9   COL     5   RATE     750.000    
 BOUNDARY    126   LAYER   1   ROW     9   COL     6   RATE     750.000    
 BOUNDARY    127   LAYER   1   ROW     9   COL     7   RATE     750.000    
 BOUNDARY    128   LAYER   1   ROW     9   COL     8   RATE     750.000    
 BOUNDARY    129   LAYER   1   ROW     9   COL     9   RATE     750.000    
 BOUNDARY    130   LAYER   1   ROW     9   COL    10   RATE     750.000    
 BOUNDARY    131   LAYER   1   ROW     9   COL    11   RATE     750.000    
 BOUNDARY    132   LAYER   1   ROW     9   COL    12   RATE     750.000    
 BOUNDARY    133   LAYER   1   ROW     9   COL    13   RATE     750.000    
 BOUNDARY    134   LAYER   1   ROW     9   COL    14   RATE     750.000    
 BOUNDARY    135   LAYER   1   ROW     9   COL    15   RATE     750.000    
 BOUNDARY    137   LAYER   1   ROW    10   COL     2   RATE     750.000    
 BOUNDARY    138   LAYER   1   ROW    10   COL     3   RATE     750.000    
 BOUNDARY    139   LAYER   1   ROW    10   COL     4   RATE     750.000    
 BOUNDARY    140   LAYER   1   ROW    10   COL     5   RATE     750.000    
 BOUNDARY    141   LAYER   1   ROW    10   COL     6   RATE     750.000    
 BOUNDARY    142   LAYER   1   ROW    10   COL     7   RATE     750.000    
 BOUNDARY    143   LAYER   1   ROW    10   COL     8   RATE     750.000    
 BOUNDARY    144   LAYER   1   ROW    10   COL     9   RATE     750.000    
 BOUNDARY    145   LAYER   1   ROW    10   COL    10   RATE     750.000    
 BOUNDARY    146   LAYER   1   ROW    10   COL    11   RATE     750.000    
 BOUNDARY    147   LAYER   1   ROW    10   COL    12   RATE     750.000    
 BOUNDARY    148   LAYER   1   ROW    10   COL    13   RATE     750.000    
 BOUNDARY    149   LAYER   1   ROW    10   COL    14   RATE     750.000    
 BOUNDARY    150   LAYER   1   ROW    10   COL    15   RATE     750.000    
 UBDSV4 SAVING ET SEGS          ON UNIT   1017 AT TIME STEP      9, STRESS PERIOD      4

 ET SEGS            PERIOD  4   STEP  9
 BOUNDARY      1   LAYER   1   ROW     1   COL    13   RATE    -91.4908      ET-1
 BOUNDARY      2   LAYER   1   ROW     2   COL    13   RATE    -173.179      ET-2
 BOUNDARY      3   LAYER   1   ROW     3   COL    13   RATE    -239.816      ET-3
 BOUNDARY      4   LAYER   1   ROW     4   COL    13   RATE    -292.334      ET-4
 BOUNDARY      5   LAYER   1   ROW     5   COL    13   RATE    -288.804      ET-5
 BOUNDARY      6   LAYER   1   ROW     6   COL    13   RATE    -287.949      ET-6
 BOUNDARY      7   LAYER   1   ROW     7   COL    13   RATE    -219.311      ET-7
 BOUNDARY      8   LAYER   1   ROW     8   COL    13   RATE    -173.143      ET-8
 BOUNDARY      9   LAYER   1   ROW     9   COL    13   RATE    -114.424      ET-9
 BOUNDARY     10   LAYER   1   ROW    10   COL    13   RATE    -47.3445      ET-10
 BOUNDARY     11   LAYER   1   ROW     1   COL    12   RATE    -145.352      ET-1
 BOUNDARY     12   LAYER   1   ROW     2   COL    12   RATE    -254.370      ET-2
 BOUNDARY     13   LAYER   1   ROW     3   COL    12   RATE    -334.688      ET-3
 BOUNDARY     14   LAYER   1   ROW     4   COL    12   RATE    -414.849      ET-4
 BOUNDARY     15   LAYER   1   ROW     5   COL    12   RATE    -416.396      ET-5
 BOUNDARY     16   LAYER   1   ROW     6   COL    12   RATE    -415.512      ET-6
 BOUNDARY     17   LAYER   1   ROW     7   COL    12   RATE    -311.901      ET-7
 BOUNDARY     18   LAYER   1   ROW     8   COL    12   RATE    -241.738      ET-8
 BOUNDARY     19   LAYER   1   ROW     9   COL    12   RATE    -172.958      ET-9
 BOUNDARY     20   LAYER   1   ROW    10   COL    12   RATE    -78.9724      ET-10
 UBDSV4 SAVING CONSTANT HEADS   ON UNIT   1017 AT TIME STEP      9, STRESS PERIOD      4

 CONSTANT HEADS     PERIOD  4   STEP  9
 BOUNDARY      1   LAYER   1   ROW     1   COL     1   RATE     2627.31      CHD-1
 BOUNDARY      2   LAYER   1   ROW     4   COL     1   RATE     4716.57    
 BOUNDARY      3   LAYER   1   ROW     5   COL     1   RATE     838.163      CHD_GP
 BOUNDARY      4   LAYER   1   ROW     6   COL     1   RATE     4303.82      CHD_GP
 BOUNDARY      5   LAYER   1   ROW    10   COL     1   RATE     1746.40      CHD-10

 HEAD WILL BE SAVED ON UNIT 1018 AT END OF TIME STEP    9, STRESS PERIOD    4
WEL   no.    1 value from time series:  -13800.     for time:  6.800     to  7.000    
WEL   no.    2 value from time series:  -30000.     for time:  6.800     to  7.000    
RIV   no.    1 value from time series:   102.70     for time:  6.800     to  7.000    
RIV   no.    2 value from time series:   102.70     for time:  6.800     to  7.000    
RIV   no.    3 value from time series:   102.70     for time:  6.800     to  7.000    
RIV   no.    4 value from time series:   102.70     for time:  6.800     to  7.000    
RIV   no.    5 value from time series:   102.70     for time:  6.800     to  7.000    
RIV   no.    6 value from time series:   102.70     for time:  6.800     to  7.000    
RIV   no.    7 value from time series:   102.70     for time:  6.800     to  7.000    
RIV   no.    8 value from time series:   102.70     for time:  6.800     to  7.000    
RIV   no.    9 value from time series:   102.70     for time:  6.800     to  7.000    
RIV   no.   10 value from time series:   102.70     for time:  6.800     to  7.000    
EVT   no.    1 value from time series:   1172.8     for time:  6.800     to  7.000    
EVT   no.    2 value from time series:   2345.6     for time:  6.800     to  7.000    
EVT   no.    3 value from time series:   3518.4     for time:  6.800     to  7.000    
EVT   no.    4 value from time series:   4691.3     for time:  6.800     to  7.000    
EVT   no.   10 value from time series:   586.41     for time:  6.800     to  7.000    
EVT   no.   11 value from time series:   1172.8     for time:  6.800     to  7.000    
EVT   no.   12 value from time series:   2345.6     for time:  6.800     to  7.000    
EVT   no.   13 value from time series:   3518.4     for time:  6.800     to  7.000    
EVT   no.   14 value from time series:   4691.3     for time:  6.800     to  7.000    
EVT   no.   20 value from time series:   586.41     for time:  6.800     to  7.000    
WEL   no.    1 value from time series:  -13800.     for time:  6.800     to  7.000    
WEL   no.    2 value from time series:  -30000.     for time:  6.800     to  7.000    
RIV   no.    1 value from time series:   102.70     for time:  6.800     to  7.000    
RIV   no.    2 value from time series:   102.70     for time:  6.800     to  7.000    
RIV   no.    3 value from time series:   102.70     for time:  6.800     to  7.000    
RIV   no.    4 value from time series:   102.70     for time:  6.800     to  7.000    
RIV   no.    5 value from time series:   102.70     for time:  6.800     to  7.000    
RIV   no.    6 value from time series:   102.70     for time:  6.800     to  7.000    
RIV   no.    7 value from time series:   102.70     for time:  6.800     to  7.000    
RIV   no.    8 value from time series:   102.70     for time:  6.800     to  7.000    
RIV   no.    9 value from time series:   102.70     for time:  6.800     to  7.000    
RIV   no.   10 value from time series:   102.70     for time:  6.800     to  7.000    
EVT   no.    1 value from time series:   1172.8     for time:  6.800     to  7.000    
EVT   no.    2 value from time series:   2345.6     for time:  6.800     to  7.000    
EVT   no.    3 value from time series:   3518.4     for time:  6.800     to  7.000    
EVT   no.    4 value from time series:   4691.3     for time:  6.800     to  7.000    
EVT   no.   10 value from time series:   586.41     for time:  6.800     to  7.000    
EVT   no.   11 value from time series:   1172.8     for time:  6.800     to  7.000    
EVT   no.   12 value from time series:   2345.6     for time:  6.800     to  7.000    
EVT   no.   13 value from time series:   3518.4     for time:  6.800     to  7.000    
EVT   no.   14 value from time series:   4691.3     for time:  6.800     to  7.000    
EVT   no.   20 value from time series:   586.41     for time:  6.800     to  7.000    

 OUTPUT CONTROL FOR STRESS PERIOD    4   TIME STEP   10
    PRINT BUDGET
    SAVE BUDGET
    SAVE HEAD
    SAVE HEAD FOR ALL LAYERS
 UBDSV1 SAVING      STORAGE(SS) ON UNIT   1017 AT TIME STEP     10, STRESS PERIOD      4
 UBDSV1 SAVING      STORAGE(SY) ON UNIT   1017 AT TIME STEP     10, STRESS PERIOD      4
 UBDSV1 SAVING FLOW RIGHT FACE  ON UNIT   1017 AT TIME STEP     10, STRESS PERIOD      4
 UBDSV1 SAVING FLOW FRONT FACE  ON UNIT   1017 AT TIME STEP     10, STRESS PERIOD      4
 UBDSV1 SAVING FLOW LOWER FACE  ON UNIT   1017 AT TIME STEP     10, STRESS PERIOD      4
 UBDSV4 SAVING WELLS NEAR RIVER ON UNIT   1017 AT TIME STEP     10, STRESS PERIOD      4

 WELLS NEAR RIVER   PERIOD  4   STEP 10
 BOUNDARY      1   LAYER   2   ROW     8   COL     4   RATE    -13800.0      WELL_2
 BOUNDARY      2   LAYER   2   ROW     3   COL     4   RATE    -30000.0      WELL_1
 UBDSV4 SAVING RIVER            ON UNIT   1017 AT TIME STEP     10, STRESS PERIOD      4

 RIVER              PERIOD  4   STEP 10
 BOUNDARY      1   LAYER   1   ROW     1   COL    15   RATE    -4559.07    
 BOUNDARY      2   LAYER   1   ROW     2   COL    15   RATE    -4541.53      RIV2
 BOUNDARY      3   LAYER   1   ROW     3   COL    15   RATE    -4515.24      RIV3
 BOUNDARY      4   LAYER   1   ROW     4   COL    15   RATE    -4487.84    
 BOUNDARY      5   LAYER   1   ROW     5   COL    15   RATE    -4466.55    
 BOUNDARY      6   LAYER   1   ROW     6   COL    15   RATE    -4465.90    
 BOUNDARY      7   LAYER   1   ROW     7   COL    15   RATE    -4486.33      RIVX
 BOUNDARY      8   LAYER   1   ROW     8   COL    15   RATE    -4516.66      RIVX
 BOUNDARY      9   LAYER   1   ROW     9   COL    15   RATE    -4548.39      RIVX
 BOUNDARY     10   LAYER   1   ROW    10   COL    15   RATE    -4571.06    

 GHB LAKES          PERIOD  4   STEP 10
 BOUNDARY      1   LAYER   1   ROW     3   COL     1   RATE    -7972.23    
 BOUNDARY      2   LAYER   1   ROW     7   COL     1   RATE     4279.10      GHB2_UPPER
 BOUNDARY      3   LAYER   1   ROW     7   COL     1   RATE    -11040.9      GHB2_LOWER
 UBDSV4 SAVING RECHARGE         ON UNIT   1017 AT TIME STEP     10, STRESS PERIOD      4

 RECHARGE           PERIOD  4   STEP 10
 BOUNDARY      2   LAYER   1   ROW     1   COL     2   RATE     750.000    
 BOUNDARY      3   LAYER   1   ROW     1   COL     3   RATE     750.000    
 BOUNDARY      4   LAYER   1   ROW     1   COL     4   RATE     750.000    
 BOUNDARY      5   LAYER   1   ROW     1   COL     5   RATE     750.000    
 BOUNDARY      6   LAYER   1   ROW     1   COL     6   RATE     750.000    
 BOUNDARY      7   LAYER   1   ROW     1   COL     7   RATE     750.000    
 BOUNDARY      8   LAYER   1   ROW     1   COL     8   RATE     750.000    
 BOUNDARY      9   LAYER   1   ROW     1   COL     9   RATE     750.000    
 BOUNDARY     10   LAYER   1   ROW     1   COL    10   RATE     750.000    
 BOUNDARY     11   LAYER   1   ROW     1   COL    11   RATE     750.000    
 BOUNDARY     12   LAYER   1   ROW     1   COL    12   RATE     750.000    
 BOUNDARY     13   LAYER   1   ROW     1   COL    13   RATE     750.000    
 BOUNDARY     14   LAYER   1   ROW     1   COL    14   RATE     750.000    
 BOUNDARY     15   LAYER   1   ROW     1   COL    15   RATE     750.000    
 BOUNDARY     16   LAYER   1   ROW     2   COL     1   RATE     750.000    
 BOUNDARY     17   LAYER   1   ROW     2   COL     2   RATE     750.000    
 BOUNDARY     18   LAYER   1   ROW     2   COL     3   RATE     750.000    
 BOUNDARY     19   LAYER   1   ROW     2   COL     4   RATE     750.000    
 BOUNDARY     20   LAYER   1   ROW     2   COL     5   RATE     750.000    
 BOUNDARY     21   LAYER   1   ROW     2   COL     6   RATE     750.000    
 BOUNDARY     22   LAYER   1   ROW     2   COL     7   RATE     750.000    
 BOUNDARY     23   LAYER   1   ROW     2   COL     8   RATE     750.000    
 BOUNDARY     24   LAYER   1   ROW     2   COL     9   RATE     750.000    
 BOUNDARY     25   LAYER   1   ROW     2   COL    10   RATE     750.000    
 BOUNDARY     26   LAYER   1   ROW     2   COL    11   RATE     750.000    
 BOUNDARY     27   LAYER   1   ROW     2   COL    12   RATE     750.000    
 BOUNDARY     28   LAYER   1   ROW     2   COL    13   RATE     750.000    
 BOUNDARY     29   LAYER   1   ROW     2   COL    14   RATE     750.000    
 BOUNDARY     30   LAYER   1   ROW     2   COL    15   RATE     750.000    
 BOUNDARY     31   LAYER   1   ROW     3   COL     1   RATE     750.000    
 BOUNDARY     32   LAYER   1   ROW     3   COL     2   RATE     750.000    
 BOUNDARY     33   LAYER   1   ROW     3   COL     3   RATE     750.000    
 BOUNDARY     34   LAYER   1   ROW     3   COL     4   RATE     750.000    
 BOUNDARY     35   LAYER   1   ROW     3   COL     5   RATE     750.000    
 BOUNDARY     36   LAYER   1   ROW     3   COL     6   RATE     750.000    
 BOUNDARY     37   LAYER   1   ROW     3   COL     7   RATE     750.000    
 BOUNDARY     38   LAYER   1   ROW     3   COL     8   RATE     750.000    
 BOUNDARY     39   LAYER   1   ROW     3   COL     9   RATE     750.000    
 BOUNDARY     40   LAYER   1   ROW     3   COL    10   RATE     750.000    
 BOUNDARY     41   LAYER   1   ROW     3   COL    11   RATE     750.000    
 BOUNDARY     42   LAYER   1   ROW     3   COL    12   RATE     750.000    
 BOUNDARY     43   LAYER   1   ROW     3   COL    13   RATE     750.000    
 BOUNDARY     44   LAYER   1   ROW     3   COL    14   RATE     750.000    
 BOUNDARY     45   LAYER   1   ROW     3   COL    15   RATE     750.000    
 BOUNDARY     47   LAYER   1   ROW     4   COL     2   RATE     750.000    
 BOUNDARY     48   LAYER   1   ROW     4   COL     3   RATE     750.000    
 BOUNDARY     49   LAYER   1   ROW     4   COL     4   RATE     750.000    
 BOUNDARY     50   LAYER   1   ROW     4   COL     5   RATE     750.000    
 BOUNDARY     51   LAYER   1   ROW     4   COL     6   RATE     750.000    
 BOUNDARY     52   LAYER   1   ROW     4   COL     7   RATE     750.000    
 BOUNDARY     53   LAYER   1   ROW     4   COL     8   RATE     750.000    
 BOUNDARY     54   LAYER   1   ROW     4   COL     9   RATE     750.000    
 BOUNDARY     55   LAYER   1   ROW     4   COL    10   RATE     750.000    
 BOUNDARY     56   LAYER   1   ROW     4   COL    11   RATE     750.000    
 BOUNDARY     57   LAYER   1   ROW     4   COL    12   RATE     750.000    
 BOUNDARY     58   LAYER   1   ROW     4   COL    13   RATE     750.000    
 BOUNDARY     59   LAYER   1   ROW     4   COL    14   RATE     750.000    
 BOUNDARY     60   LAYER   1   ROW     4   COL    15   RATE     750.000    
 BOUNDARY     62   LAYER   1   ROW     5   COL     2   RATE     750.000    
 BOUNDARY     63   LAYER   1   ROW     5   COL     3   RATE     750.000    
 BOUNDARY     64   LAYER   1   ROW     5   COL     4   RATE     750.000    
 BOUNDARY     65   LAYER   1   ROW     5   COL     5   RATE     750.000    
 BOUNDARY     66   LAYER   1   ROW     5   COL     6   RATE     750.000    
 BOUNDARY     67   LAYER   1   ROW     5   COL     7   RATE     750.000    
 BOUNDARY     68   LAYER   1   ROW     5   COL     8   RATE     750.000    
 BOUNDARY     69   LAYER   1   ROW     5   COL     9   RATE     750.000    
 BOUNDARY     70   LAYER   1   ROW     5   COL    10   RATE     750.000    
 BOUNDARY     71   LAYER   1   ROW     5   COL    11   RATE     750.000    
 BOUNDARY     72   LAYER   1   ROW     5   COL    12   RATE     750.000    
 BOUNDARY     73   LAYER   1   ROW     5   COL    13   RATE     750.000    
 BOUNDARY     74   LAYER   1   ROW     5   COL    14   RATE     750.000    
 BOUNDARY     75   LAYER   1   ROW     5   COL    15   RATE     750.000    
 BOUNDARY     77   LAYER   1   ROW     6   COL     2   RATE     750.000    
 BOUNDARY     78   LAYER   1   ROW     6   COL     3   RATE     750.000    
 BOUNDARY     79   LAYER   1   ROW     6   COL     4   RATE     750.000    
 BOUNDARY     80   LAYER   1   ROW     6   COL     5   RATE     750.000    
 BOUNDARY     81   LAYER   1   ROW     6   COL     6   RATE     750.000    
 BOUNDARY     82   LAYER   1   ROW     6   COL     7   RATE     750.000    
 BOUNDARY     83   LAYER   1   ROW     6   COL     8   RATE     750.000    
 BOUNDARY     84   LAYER   1   ROW     6   COL     9   RATE     750.000    
 BOUNDARY     85   LAYER   1   ROW     6   COL    10   RATE     750.000    
 BOUNDARY     86   LAYER   1   ROW     6   COL    11   RATE     750.000    
 BOUNDARY     87   LAYER   1   ROW     6   COL    12   RATE     750.000    
 BOUNDARY     88   LAYER   1   ROW     6   COL    13   RATE     750.000    
 BOUNDARY     89   LAYER   1   ROW     6   COL    14   RATE     750.000    
 BOUNDARY     90   LAYER   1   ROW     6   COL    15   RATE     750.000    
 BOUNDARY     91   LAYER   1   ROW     7   COL     1   RATE     750.000    
 BOUNDARY     92   LAYER   1   ROW     7   COL     2   RATE     750.000    
 BOUNDARY     93   LAYER   1   ROW     7   COL     3   RATE     750.000    
 BOUNDARY     94   LAYER   1   ROW     7   COL     4   RATE     750.000    
 BOUNDARY     95   LAYER   1   ROW     7   COL     5   RATE     750.000    
 BOUNDARY     96   LAYER   1   ROW     7   COL     6   RATE     750.000    
 BOUNDARY     97   LAYER   1   ROW     7   COL     7   RATE     750.000    
 BOUNDARY     98   LAYER   1   ROW     7   COL     8   RATE     750.000    
 BOUNDARY     99   LAYER   1   ROW     7   COL     9   RATE     750.000    
 BOUNDARY    100   LAYER   1   ROW     7   COL    10   RATE     750.000    
 BOUNDARY    101   LAYER   1   ROW     7   COL    11   RATE     750.000    
 BOUNDARY    102   LAYER   1   ROW     7   COL    12   RATE     750.000    
 BOUNDARY    103   LAYER   1   ROW     7   COL    13   RATE     750.000    
 BOUNDARY    104   LAYER   1   ROW     7   COL    14   RATE     750.000    
 BOUNDARY    105   LAYER   1   ROW     7   COL    15   RATE     750.000    
 BOUNDARY    106   LAYER   1   ROW     8   COL     1   RATE     750.000    
 BOUNDARY    107   LAYER   1   ROW     8   COL     2   RATE     750.000    
 BOUNDARY    108   LAYER   1   ROW     8   COL     3   RATE     750.000    
 BOUNDARY    109   LAYER   1   ROW     8   COL     4   RATE     750.000    
 BOUNDARY    110   LAYER   1   ROW     8   COL     5   RATE     750.000    
 BOUNDARY    111   LAYER   1   ROW     8   COL     6   RATE     750.000    
 BOUNDARY    112   LAYER   1   ROW     8   COL     7   RATE     750.000    
 BOUNDARY    113   LAYER   1   ROW     8   COL     8   RATE     750.000    
 BOUNDARY    114   LAYER   1   ROW     8   COL     9   RATE     750.000    
 BOUNDARY    115   LAYER   1   ROW     8   COL    10   RATE     750.000    
 BOUNDARY    116   LAYER   1   ROW     8   COL    11   RATE     750.000    
 BOUNDARY    117   LAYER   1   ROW     8   COL    12   RATE     750.000    
 BOUNDARY    118   LAYER   1   ROW     8   COL    13   RATE     750.000    
 BOUNDARY    119   LAYER   1   ROW     8   COL    14   RATE     750.000    
 BOUNDARY    120   LAYER   1   ROW     8   COL    15   RATE     750.000    
 BOUNDARY    121   LAYER   1   ROW     9   COL     1   RATE     750.000    
 BOUNDARY    122   LAYER   1   ROW     9   COL     2   RATE     750.000    
 BOUNDARY    123   LAYER   1   ROW     9   COL     3   RATE     750.000    
 BOUNDARY    124   LAYER   1   ROW     9   COL     4   RATE     750.000    
 BOUNDARY    125   LAYER   1   ROW     9   COL     5   RATE     750.000    
 BOUNDARY    126   LAYER   1   ROW     9   COL     6   RATE     750.000    
 BOUNDARY    127   LAYER   1   ROW     9   COL     7   RATE     750.000    
 BOUNDARY    128   LAYER   1   ROW     9   COL     8   RATE     750.000    
 BOUNDARY    129   LAYER   1   ROW     9   COL     9   RATE     750.000    
 BOUNDARY    130   LAYER   1   ROW     9   COL    10   RATE     750.000    
 BOUNDARY    131   LAYER   1   ROW     9   COL    11   RATE     750.000    
 BOUNDARY    132   LAYER   1   ROW     9   COL    12   RATE     750.000    
 BOUNDARY    133   LAYER   1   ROW     9   COL    13   RATE     750.000    
 BOUNDARY    134   LAYER   1   ROW     9   COL    14   RATE     750.000    
 BOUNDARY    135   LAYER   1   ROW     9   COL    15   RATE     750.000    
 BOUNDARY    137   LAYER   1   ROW    10   COL     2   RATE     750.000    
 BOUNDARY    138   LAYER   1   ROW    10   COL     3   RATE     750.000    
 BOUNDARY    139   LAYER   1   ROW    10   COL     4   RATE     750.000    
 BOUNDARY    140   LAYER   1   ROW    10   COL     5   RATE     750.000    
 BOUNDARY    141   LAYER   1   ROW    10   COL     6   RATE     750.000    
 BOUNDARY    142   LAYER   1   ROW    10   COL     7   RATE     750.000    
 BOUNDARY    143   LAYER   1   ROW    10   COL     8   RATE     750.000    
 BOUNDARY    144   LAYER   1   ROW    10   COL     9   RATE     750.000    
 BOUNDARY    145   LAYER   1   ROW    10   COL    10   RATE     750.000    
 BOUNDARY    146   LAYER   1   ROW    10   COL    11   RATE     750.000    
 BOUNDARY    147   LAYER   1   ROW    10   COL    12   RATE     750.000    
 BOUNDARY    148   LAYER   1   ROW    10   COL    13   RATE     750.000    
 BOUNDARY    149   LAYER   1   ROW    10   COL    14   RATE     750.000    
 BOUNDARY    150   LAYER   1   ROW    10   COL    15   RATE     750.000    
 UBDSV4 SAVING ET SEGS          ON UNIT   1017 AT TIME STEP     10, STRESS PERIOD      4

 ET SEGS            PERIOD  4   STEP 10
 BOUNDARY      1   LAYER   1   ROW     1   COL    13   RATE    -92.9548      ET-1
 BOUNDARY      2   LAYER   1   ROW     2   COL    13   RATE    -175.953      ET-2
 BOUNDARY      3   LAYER   1   ROW     3   COL    13   RATE    -243.672      ET-3
 BOUNDARY      4   LAYER   1   ROW     4   COL    13   RATE    -297.063      ET-4
 BOUNDARY      5   LAYER   1   ROW     5   COL    13   RATE    -289.364      ET-5
 BOUNDARY      6   LAYER   1   ROW     6   COL    13   RATE    -288.511      ET-6
 BOUNDARY      7   LAYER   1   ROW     7   COL    13   RATE    -219.707      ET-7
 BOUNDARY      8   LAYER   1   ROW     8   COL    13   RATE    -173.427      ET-8
 BOUNDARY      9   LAYER   1   ROW     9   COL    13   RATE    -114.595      ET-9
 BOUNDARY     10   LAYER   1   ROW    10   COL    13   RATE    -48.1014      ET-10
 BOUNDARY     11   LAYER   1   ROW     1   COL    12   RATE    -147.877      ET-1
 BOUNDARY     12   LAYER   1   ROW     2   COL    12   RATE    -258.837      ET-2
 BOUNDARY     13   LAYER   1   ROW     3   COL    12   RATE    -339.902      ET-3
 BOUNDARY     14   LAYER   1   ROW     4   COL    12   RATE    -421.325      ET-4
 BOUNDARY     15   LAYER   1   ROW     5   COL    12   RATE    -416.942      ET-5
 BOUNDARY     16   LAYER   1   ROW     6   COL    12   RATE    -416.060      ET-6
 BOUNDARY     17   LAYER   1   ROW     7   COL    12   RATE    -312.288      ET-7
 BOUNDARY     18   LAYER   1   ROW     8   COL    12   RATE    -242.015      ET-8
 BOUNDARY     19   LAYER   1   ROW     9   COL    12   RATE    -173.505      ET-9
 BOUNDARY     20   LAYER   1   ROW    10   COL    12   RATE    -80.3350      ET-10
 UBDSV4 SAVING CONSTANT HEADS   ON UNIT   1017 AT TIME STEP     10, STRESS PERIOD      4

 CONSTANT HEADS     PERIOD  4   STEP 10
 BOUNDARY      1   LAYER   1   ROW     1   COL     1   RATE     2627.38      CHD-1
 BOUNDARY      2   LAYER   1   ROW     4   COL     1   RATE     4717.13    
 BOUNDARY      3   LAYER   1   ROW     5   COL     1   RATE     839.060      CHD_GP
 BOUNDARY      4   LAYER   1   ROW     6   COL     1   RATE     4304.11      CHD_GP
 BOUNDARY      5   LAYER   1   ROW    10   COL     1   RATE     1745.67      CHD-10

 HEAD WILL BE SAVED ON UNIT 1018 AT END OF TIME STEP   10, STRESS PERIOD    4
1
  VOLUME BUDGET FOR ENTIRE MODEL AT END OF TIME STEP   10, STRESS PERIOD   4
  ------------------------------------------------------------------------------

     CUMULATIVE VOLUME      L**3       RATES FOR THIS TIME STEP      L**3/T
     ------------------                 ------------------------

           IN:                                      IN:
           ---                                      ---
         STORAGE(SS) =       70242.5353           STORAGE(SS) =        7245.3859
         STORAGE(SY) =      149312.6536           STORAGE(SY) =       62233.9004
    WELLS NEAR RIVER =           0.0000      WELLS NEAR RIVER =           0.0000
               RIVER =      521888.8807                 RIVER =           0.0000
           GHB LAKES =       30552.8190             GHB LAKES =        4279.0995
            RECHARGE =      659750.0000              RECHARGE =      108750.0000
             ET SEGS =           0.0000               ET SEGS =           0.0000
      CONSTANT HEADS =       99898.4905        CONSTANT HEADS =       14233.3510

            TOTAL IN =     1531645.3791              TOTAL IN =      196741.7369

          OUT:                                     OUT:
          ----                                     ----
         STORAGE(SS) =        2349.6257           STORAGE(SS) =         131.4822
         STORAGE(SY) =     1090286.1446           STORAGE(SY) =       83886.1601
    WELLS NEAR RIVER =      228240.0000      WELLS NEAR RIVER =       43800.0000
               RIVER =       49584.2969                 RIVER =       45158.5664
           GHB LAKES =      132042.0467             GHB LAKES =       19013.0935
            RECHARGE =           0.0000              RECHARGE =           0.0000
             ET SEGS =       29143.2707               ET SEGS =        4752.4346
      CONSTANT HEADS =           0.0000        CONSTANT HEADS =           0.0000

           TOTAL OUT =     1531645.3845             TOTAL OUT =      196741.7369

            IN - OUT =      -5.4015E-03              IN - OUT =      -1.7026E-08

 PERCENT DISCREPANCY =          -0.00     PERCENT DISCREPANCY =          -0.00






         TIME SUMMARY AT END OF TIME STEP   10 IN STRESS PERIOD    4
                    SECONDS     MINUTES      HOURS       DAYS        YEARS
                    -----------------------------------------------------------
   TIME STEP LENGTH  17280.      288.00      4.8000     0.20000     5.47570E-04
 STRESS PERIOD TIME 1.72800E+05  2880.0      48.000      2.0000     5.47570E-03
         TOTAL TIME 6.04800E+05  10080.      168.00      7.0000     1.91650E-02

 REUSING STORAGE VALUES FROM LAST STRESS PERIOD

 REUSING WELS FROM LAST STRESS PERIOD
 #    layer       row       col    stage        cond       rbot  BoundName

 RIV NO.  LAYER   ROW    COL       STAGE         CONDUCTANCE  BOTTOM EL.      BOUNDARY NAME         
 ---------------------------------------------------------------------------------------------------
      1      1      1     15       102.3          0.1000E+05      100.00                      
      2      1      2     15       102.3          0.1000E+05      100.00      RIV2            
      3      1      3     15       102.3          0.1000E+05      100.00      RIV3            
      4      1      4     15       102.3          0.1000E+05      100.00                      
      5      1      5     15       102.3          0.1000E+05      100.00                      
      6      1      6     15       102.3          0.1000E+05      100.00                      
      7      1      7     15       102.3          0.1000E+05      100.00      RIVX            
      8      1      8     15       102.3          0.1000E+05      100.00      RIVX            
      9      1      9     15       102.3          0.1000E+05      100.00      RIVX            
     10      1     10     15       102.3          0.1000E+05      100.00                      

 REUSING GHBS FROM LAST STRESS PERIOD

 REUSING RCHS FROM LAST STRESS PERIOD

 REUSING EVTS FROM LAST STRESS PERIOD

 REUSING CHDS FROM LAST STRESS PERIOD
WEL   no.    1 value from time series:  -14200.     for time:  7.000     to  7.200    
WEL   no.    2 value from time series:  -30000.     for time:  7.000     to  7.200    
RIV   no.    1 value from time series:   102.63     for time:  7.000     to  7.200    
RIV   no.    2 value from time series:   102.63     for time:  7.000     to  7.200    
RIV   no.    3 value from time series:   102.63     for time:  7.000     to  7.200    
RIV   no.    4 value from time series:   102.63     for time:  7.000     to  7.200    
RIV   no.    5 value from time series:   102.63     for time:  7.000     to  7.200    
RIV   no.    6 value from time series:   102.63     for time:  7.000     to  7.200    
RIV   no.    7 value from time series:   102.63     for time:  7.000     to  7.200    
RIV   no.    8 value from time series:   102.63     for time:  7.000     to  7.200    
RIV   no.    9 value from time series:   102.63     for time:  7.000     to  7.200    
RIV   no.   10 value from time series:   102.63     for time:  7.000     to  7.200    
EVT   no.    1 value from time series:   1189.7     for time:  7.000     to  7.200    
EVT   no.    2 value from time series:   2379.4     for time:  7.000     to  7.200    
EVT   no.    3 value from time series:   3569.1     for time:  7.000     to  7.200    
EVT   no.    4 value from time series:   4758.8     for time:  7.000     to  7.200    
EVT   no.   10 value from time series:   594.84     for time:  7.000     to  7.200    
EVT   no.   11 value from time series:   1189.7     for time:  7.000     to  7.200    
EVT   no.   12 value from time series:   2379.4     for time:  7.000     to  7.200    
EVT   no.   13 value from time series:   3569.1     for time:  7.000     to  7.200    
EVT   no.   14 value from time series:   4758.8     for time:  7.000     to  7.200    
EVT   no.   20 value from time series:   594.84     for time:  7.000     to  7.200    
WEL   no.    1 value from time series:  -14200.     for time:  7.000     to  7.200    
WEL   no.    2 value from time series:  -30000.     for time:  7.000     to  7.200    
RIV   no.    1 value from time series:   102.63     for time:  7.000     to  7.200    
RIV   no.    2 value from time series:   102.63     for time:  7.000     to  7.200    
RIV   no.    3 value from time series:   102.63     for time:  7.000     to  7.200    
RIV   no.    4 value from time series:   102.63     for time:  7.000     to  7.200    
RIV   no.    5 value from time series:   102.63     for time:  7.000     to  7.200    
RIV   no.    6 value from time series:   102.63     for time:  7.000     to  7.200    
RIV   no.    7 value from time series:   102.63     for time:  7.000     to  7.200    
RIV   no.    8 value from time series:   102.63     for time:  7.000     to  7.200    
RIV   no.    9 value from time series:   102.63     for time:  7.000     to  7.200    
RIV   no.   10 value from time series:   102.63     for time:  7.000     to  7.200    
EVT   no.    1 value from time series:   1189.7     for time:  7.000     to  7.200    
EVT   no.    2 value from time series:   2379.4     for time:  7.000     to  7.200    
EVT   no.    3 value from time series:   3569.1     for time:  7.000     to  7.200    
EVT   no.    4 value from time series:   4758.8     for time:  7.000     to  7.200    
EVT   no.   10 value from time series:   594.84     for time:  7.000     to  7.200    
EVT   no.   11 value from time series:   1189.7     for time:  7.000     to  7.200    
EVT   no.   12 value from time series:   2379.4     for time:  7.000     to  7.200    
EVT   no.   13 value from time series:   3569.1     for time:  7.000     to  7.200    
EVT   no.   14 value from time series:   4758.8     for time:  7.000     to  7.200    
EVT   no.   20 value from time series:   594.84     for time:  7.000     to  7.200    

 OUTPUT CONTROL FOR STRESS PERIOD    5   TIME STEP    1
    SAVE BUDGET
    SAVE HEAD
    SAVE HEAD FOR ALL LAYERS
 UBDSV1 SAVING      STORAGE(SS) ON UNIT   1017 AT TIME STEP      1, STRESS PERIOD      5
 UBDSV1 SAVING      STORAGE(SY) ON UNIT   1017 AT TIME STEP      1, STRESS PERIOD      5
 UBDSV1 SAVING FLOW RIGHT FACE  ON UNIT   1017 AT TIME STEP      1, STRESS PERIOD      5
 UBDSV1 SAVING FLOW FRONT FACE  ON UNIT   1017 AT TIME STEP      1, STRESS PERIOD      5
 UBDSV1 SAVING FLOW LOWER FACE  ON UNIT   1017 AT TIME STEP      1, STRESS PERIOD      5
 UBDSV4 SAVING WELLS NEAR RIVER ON UNIT   1017 AT TIME STEP      1, STRESS PERIOD      5

 WELLS NEAR RIVER   PERIOD  5   STEP  1
 BOUNDARY      1   LAYER   2   ROW     8   COL     4   RATE    -14200.0      WELL_2
 BOUNDARY      2   LAYER   2   ROW     3   COL     4   RATE    -30000.0      WELL_1
 UBDSV4 SAVING RIVER            ON UNIT   1017 AT TIME STEP      1, STRESS PERIOD      5

 RIVER              PERIOD  5   STEP  1
 BOUNDARY      1   LAYER   1   ROW     1   COL    15   RATE    -4883.42    
 BOUNDARY      2   LAYER   1   ROW     2   COL    15   RATE    -4865.86      RIV2
 BOUNDARY      3   LAYER   1   ROW     3   COL    15   RATE    -4839.55      RIV3
 BOUNDARY      4   LAYER   1   ROW     4   COL    15   RATE    -4812.13    
 BOUNDARY      5   LAYER   1   ROW     5   COL    15   RATE    -4790.82    
 BOUNDARY      6   LAYER   1   ROW     6   COL    15   RATE    -4790.17    
 BOUNDARY      7   LAYER   1   ROW     7   COL    15   RATE    -4810.62      RIVX
 BOUNDARY      8   LAYER   1   ROW     8   COL    15   RATE    -4840.98      RIVX
 BOUNDARY      9   LAYER   1   ROW     9   COL    15   RATE    -4872.74      RIVX
 BOUNDARY     10   LAYER   1   ROW    10   COL    15   RATE    -4895.42    

 GHB LAKES          PERIOD  5   STEP  1
 BOUNDARY      1   LAYER   1   ROW     3   COL     1   RATE    -7976.93    
 BOUNDARY      2   LAYER   1   ROW     7   COL     1   RATE     4274.99      GHB2_UPPER
 BOUNDARY      3   LAYER   1   ROW     7   COL     1   RATE    -11042.3      GHB2_LOWER
 UBDSV4 SAVING RECHARGE         ON UNIT   1017 AT TIME STEP      1, STRESS PERIOD      5

 RECHARGE           PERIOD  5   STEP  1
 BOUNDARY      2   LAYER   1   ROW     1   COL     2   RATE     750.000    
 BOUNDARY      3   LAYER   1   ROW     1   COL     3   RATE     750.000    
 BOUNDARY      4   LAYER   1   ROW     1   COL     4   RATE     750.000    
 BOUNDARY      5   LAYER   1   ROW     1   COL     5   RATE     750.000    
 BOUNDARY      6   LAYER   1   ROW     1   COL     6   RATE     750.000    
 BOUNDARY      7   LAYER   1   ROW     1   COL     7   RATE     750.000    
 BOUNDARY      8   LAYER   1   ROW     1   COL     8   RATE     750.000    
 BOUNDARY      9   LAYER   1   ROW     1   COL     9   RATE     750.000    
 BOUNDARY     10   LAYER   1   ROW     1   COL    10   RATE     750.000    
 BOUNDARY     11   LAYER   1   ROW     1   COL    11   RATE     750.000    
 BOUNDARY     12   LAYER   1   ROW     1   COL    12   RATE     750.000    
 BOUNDARY     13   LAYER   1   ROW     1   COL    13   RATE     750.000    
 BOUNDARY     14   LAYER   1   ROW     1   COL    14   RATE     750.000    
 BOUNDARY     15   LAYER   1   ROW     1   COL    15   RATE     750.000    
 BOUNDARY     16   LAYER   1   ROW     2   COL     1   RATE     750.000    
 BOUNDARY     17   LAYER   1   ROW     2   COL     2   RATE     750.000    
 BOUNDARY     18   LAYER   1   ROW     2   COL     3   RATE     750.000    
 BOUNDARY     19   LAYER   1   ROW     2   COL     4   RATE     750.000    
 BOUNDARY     20   LAYER   1   ROW     2   COL     5   RATE     750.000    
 BOUNDARY     21   LAYER   1   ROW     2   COL     6   RATE     750.000    
 BOUNDARY     22   LAYER   1   ROW     2   COL     7   RATE     750.000    
 BOUNDARY     23   LAYER   1   ROW     2   COL     8   RATE     750.000    
 BOUNDARY     24   LAYER   1   ROW     2   COL     9   RATE     750.000    
 BOUNDARY     25   LAYER   1   ROW     2   COL    10   RATE     750.000    
 BOUNDARY     26   LAYER   1   ROW     2   COL    11   RATE     750.000    
 BOUNDARY     27   LAYER   1   ROW     2   COL    12   RATE     750.000    
 BOUNDARY     28   LAYER   1   ROW     2   COL    13   RATE     750.000    
 BOUNDARY     29   LAYER   1   ROW     2   COL    14   RATE     750.000    
 BOUNDARY     30   LAYER   1   ROW     2   COL    15   RATE     750.000    
 BOUNDARY     31   LAYER   1   ROW     3   COL     1   RATE     750.000    
 BOUNDARY     32   LAYER   1   ROW     3   COL     2   RATE     750.000    
 BOUNDARY     33   LAYER   1   ROW     3   COL     3   RATE     750.000    
 BOUNDARY     34   LAYER   1   ROW     3   COL     4   RATE     750.000    
 BOUNDARY     35   LAYER   1   ROW     3   COL     5   RATE     750.000    
 BOUNDARY     36   LAYER   1   ROW     3   COL     6   RATE     750.000    
 BOUNDARY     37   LAYER   1   ROW     3   COL     7   RATE     750.000    
 BOUNDARY     38   LAYER   1   ROW     3   COL     8   RATE     750.000    
 BOUNDARY     39   LAYER   1   ROW     3   COL     9   RATE     750.000    
 BOUNDARY     40   LAYER   1   ROW     3   COL    10   RATE     750.000    
 BOUNDARY     41   LAYER   1   ROW     3   COL    11   RATE     750.000    
 BOUNDARY     42   LAYER   1   ROW     3   COL    12   RATE     750.000    
 BOUNDARY     43   LAYER   1   ROW     3   COL    13   RATE     750.000    
 BOUNDARY     44   LAYER   1   ROW     3   COL    14   RATE     750.000    
 BOUNDARY     45   LAYER   1   ROW     3   COL    15   RATE     750.000    
 BOUNDARY     47   LAYER   1   ROW     4   COL     2   RATE     750.000    
 BOUNDARY     48   LAYER   1   ROW     4   COL     3   RATE     750.000    
 BOUNDARY     49   LAYER   1   ROW     4   COL     4   RATE     750.000    
 BOUNDARY     50   LAYER   1   ROW     4   COL     5   RATE     750.000    
 BOUNDARY     51   LAYER   1   ROW     4   COL     6   RATE     750.000    
 BOUNDARY     52   LAYER   1   ROW     4   COL     7   RATE     750.000    
 BOUNDARY     53   LAYER   1   ROW     4   COL     8   RATE     750.000    
 BOUNDARY     54   LAYER   1   ROW     4   COL     9   RATE     750.000    
 BOUNDARY     55   LAYER   1   ROW     4   COL    10   RATE     750.000    
 BOUNDARY     56   LAYER   1   ROW     4   COL    11   RATE     750.000    
 BOUNDARY     57   LAYER   1   ROW     4   COL    12   RATE     750.000    
 BOUNDARY     58   LAYER   1   ROW     4   COL    13   RATE     750.000    
 BOUNDARY     59   LAYER   1   ROW     4   COL    14   RATE     750.000    
 BOUNDARY     60   LAYER   1   ROW     4   COL    15   RATE     750.000    
 BOUNDARY     62   LAYER   1   ROW     5   COL     2   RATE     750.000    
 BOUNDARY     63   LAYER   1   ROW     5   COL     3   RATE     750.000    
 BOUNDARY     64   LAYER   1   ROW     5   COL     4   RATE     750.000    
 BOUNDARY     65   LAYER   1   ROW     5   COL     5   RATE     750.000    
 BOUNDARY     66   LAYER   1   ROW     5   COL     6   RATE     750.000    
 BOUNDARY     67   LAYER   1   ROW     5   COL     7   RATE     750.000    
 BOUNDARY     68   LAYER   1   ROW     5   COL     8   RATE     750.000    
 BOUNDARY     69   LAYER   1   ROW     5   COL     9   RATE     750.000    
 BOUNDARY     70   LAYER   1   ROW     5   COL    10   RATE     750.000    
 BOUNDARY     71   LAYER   1   ROW     5   COL    11   RATE     750.000    
 BOUNDARY     72   LAYER   1   ROW     5   COL    12   RATE     750.000    
 BOUNDARY     73   LAYER   1   ROW     5   COL    13   RATE     750.000    
 BOUNDARY     74   LAYER   1   ROW     5   COL    14   RATE     750.000    
 BOUNDARY     75   LAYER   1   ROW     5   COL    15   RATE     750.000    
 BOUNDARY     77   LAYER   1   ROW     6   COL     2   RATE     750.000    
 BOUNDARY     78   LAYER   1   ROW     6   COL     3   RATE     750.000    
 BOUNDARY     79   LAYER   1   ROW     6   COL     4   RATE     750.000    
 BOUNDARY     80   LAYER   1   ROW     6   COL     5   RATE     750.000    
 BOUNDARY     81   LAYER   1   ROW     6   COL     6   RATE     750.000    
 BOUNDARY     82   LAYER   1   ROW     6   COL     7   RATE     750.000    
 BOUNDARY     83   LAYER   1   ROW     6   COL     8   RATE     750.000    
 BOUNDARY     84   LAYER   1   ROW     6   COL     9   RATE     750.000    
 BOUNDARY     85   LAYER   1   ROW     6   COL    10   RATE     750.000    
 BOUNDARY     86   LAYER   1   ROW     6   COL    11   RATE     750.000    
 BOUNDARY     87   LAYER   1   ROW     6   COL    12   RATE     750.000    
 BOUNDARY     88   LAYER   1   ROW     6   COL    13   RATE     750.000    
 BOUNDARY     89   LAYER   1   ROW     6   COL    14   RATE     750.000    
 BOUNDARY     90   LAYER   1   ROW     6   COL    15   RATE     750.000    
 BOUNDARY     91   LAYER   1   ROW     7   COL     1   RATE     750.000    
 BOUNDARY     92   LAYER   1   ROW     7   COL     2   RATE     750.000    
 BOUNDARY     93   LAYER   1   ROW     7   COL     3   RATE     750.000    
 BOUNDARY     94   LAYER   1   ROW     7   COL     4   RATE     750.000    
 BOUNDARY     95   LAYER   1   ROW     7   COL     5   RATE     750.000    
 BOUNDARY     96   LAYER   1   ROW     7   COL     6   RATE     750.000    
 BOUNDARY     97   LAYER   1   ROW     7   COL     7   RATE     750.000    
 BOUNDARY     98   LAYER   1   ROW     7   COL     8   RATE     750.000    
 BOUNDARY     99   LAYER   1   ROW     7   COL     9   RATE     750.000    
 BOUNDARY    100   LAYER   1   ROW     7   COL    10   RATE     750.000    
 BOUNDARY    101   LAYER   1   ROW     7   COL    11   RATE     750.000    
 BOUNDARY    102   LAYER   1   ROW     7   COL    12   RATE     750.000    
 BOUNDARY    103   LAYER   1   ROW     7   COL    13   RATE     750.000    
 BOUNDARY    104   LAYER   1   ROW     7   COL    14   RATE     750.000    
 BOUNDARY    105   LAYER   1   ROW     7   COL    15   RATE     750.000    
 BOUNDARY    106   LAYER   1   ROW     8   COL     1   RATE     750.000    
 BOUNDARY    107   LAYER   1   ROW     8   COL     2   RATE     750.000    
 BOUNDARY    108   LAYER   1   ROW     8   COL     3   RATE     750.000    
 BOUNDARY    109   LAYER   1   ROW     8   COL     4   RATE     750.000    
 BOUNDARY    110   LAYER   1   ROW     8   COL     5   RATE     750.000    
 BOUNDARY    111   LAYER   1   ROW     8   COL     6   RATE     750.000    
 BOUNDARY    112   LAYER   1   ROW     8   COL     7   RATE     750.000    
 BOUNDARY    113   LAYER   1   ROW     8   COL     8   RATE     750.000    
 BOUNDARY    114   LAYER   1   ROW     8   COL     9   RATE     750.000    
 BOUNDARY    115   LAYER   1   ROW     8   COL    10   RATE     750.000    
 BOUNDARY    116   LAYER   1   ROW     8   COL    11   RATE     750.000    
 BOUNDARY    117   LAYER   1   ROW     8   COL    12   RATE     750.000    
 BOUNDARY    118   LAYER   1   ROW     8   COL    13   RATE     750.000    
 BOUNDARY    119   LAYER   1   ROW     8   COL    14   RATE     750.000    
 BOUNDARY    120   LAYER   1   ROW     8   COL    15   RATE     750.000    
 BOUNDARY    121   LAYER   1   ROW     9   COL     1   RATE     750.000    
 BOUNDARY    122   LAYER   1   ROW     9   COL     2   RATE     750.000    
 BOUNDARY    123   LAYER   1   ROW     9   COL     3   RATE     750.000    
 BOUNDARY    124   LAYER   1   ROW     9   COL     4   RATE     750.000    
 BOUNDARY    125   LAYER   1   ROW     9   COL     5   RATE     750.000    
 BOUNDARY    126   LAYER   1   ROW     9   COL     6   RATE     750.000    
 BOUNDARY    127   LAYER   1   ROW     9   COL     7   RATE     750.000    
 BOUNDARY    128   LAYER   1   ROW     9   COL     8   RATE     750.000    
 BOUNDARY    129   LAYER   1   ROW     9   COL     9   RATE     750.000    
 BOUNDARY    130   LAYER   1   ROW     9   COL    10   RATE     750.000    
 BOUNDARY    131   LAYER   1   ROW     9   COL    11   RATE     750.000    
 BOUNDARY    132   LAYER   1   ROW     9   COL    12   RATE     750.000    
 BOUNDARY    133   LAYER   1   ROW     9   COL    13   RATE     750.000    
 BOUNDARY    134   LAYER   1   ROW     9   COL    14   RATE     750.000    
 BOUNDARY    135   LAYER   1   ROW     9   COL    15   RATE     750.000    
 BOUNDARY    137   LAYER   1   ROW    10   COL     2   RATE     750.000    
 BOUNDARY    138   LAYER   1   ROW    10   COL     3   RATE     750.000    
 BOUNDARY    139   LAYER   1   ROW    10   COL     4   RATE     750.000    
 BOUNDARY    140   LAYER   1   ROW    10   COL     5   RATE     750.000    
 BOUNDARY    141   LAYER   1   ROW    10   COL     6   RATE     750.000    
 BOUNDARY    142   LAYER   1   ROW    10   COL     7   RATE     750.000    
 BOUNDARY    143   LAYER   1   ROW    10   COL     8   RATE     750.000    
 BOUNDARY    144   LAYER   1   ROW    10   COL     9   RATE     750.000    
 BOUNDARY    145   LAYER   1   ROW    10   COL    10   RATE     750.000    
 BOUNDARY    146   LAYER   1   ROW    10   COL    11   RATE     750.000    
 BOUNDARY    147   LAYER   1   ROW    10   COL    12   RATE     750.000    
 BOUNDARY    148   LAYER   1   ROW    10   COL    13   RATE     750.000    
 BOUNDARY    149   LAYER   1   ROW    10   COL    14   RATE     750.000    
 BOUNDARY    150   LAYER   1   ROW    10   COL    15   RATE     750.000    
 UBDSV4 SAVING ET SEGS          ON UNIT   1017 AT TIME STEP      1, STRESS PERIOD      5

 ET SEGS            PERIOD  5   STEP  1
 BOUNDARY      1   LAYER   1   ROW     1   COL    13   RATE    -94.4224      ET-1
 BOUNDARY      2   LAYER   1   ROW     2   COL    13   RATE    -178.734      ET-2
 BOUNDARY      3   LAYER   1   ROW     3   COL    13   RATE    -247.538      ET-3
 BOUNDARY      4   LAYER   1   ROW     4   COL    13   RATE    -301.802      ET-4
 BOUNDARY      5   LAYER   1   ROW     5   COL    13   RATE    -289.925      ET-5
 BOUNDARY      6   LAYER   1   ROW     6   COL    13   RATE    -289.073      ET-6
 BOUNDARY      7   LAYER   1   ROW     7   COL    13   RATE    -220.103      ET-7
 BOUNDARY      8   LAYER   1   ROW     8   COL    13   RATE    -173.712      ET-8
 BOUNDARY      9   LAYER   1   ROW     9   COL    13   RATE    -114.766      ET-9
 BOUNDARY     10   LAYER   1   ROW    10   COL    13   RATE    -48.8602      ET-10
 BOUNDARY     11   LAYER   1   ROW     1   COL    12   RATE    -150.411      ET-1
 BOUNDARY     12   LAYER   1   ROW     2   COL    12   RATE    -263.321      ET-2
 BOUNDARY     13   LAYER   1   ROW     3   COL    12   RATE    -345.124      ET-3
 BOUNDARY     14   LAYER   1   ROW     4   COL    12   RATE    -427.809      ET-4
 BOUNDARY     15   LAYER   1   ROW     5   COL    12   RATE    -417.488      ET-5
 BOUNDARY     16   LAYER   1   ROW     6   COL    12   RATE    -416.608      ET-6
 BOUNDARY     17   LAYER   1   ROW     7   COL    12   RATE    -312.674      ET-7
 BOUNDARY     18   LAYER   1   ROW     8   COL    12   RATE    -242.292      ET-8
 BOUNDARY     19   LAYER   1   ROW     9   COL    12   RATE    -174.053      ET-9
 BOUNDARY     20   LAYER   1   ROW    10   COL    12   RATE    -81.7032      ET-10
 UBDSV4 SAVING CONSTANT HEADS   ON UNIT   1017 AT TIME STEP      1, STRESS PERIOD      5

 CONSTANT HEADS     PERIOD  5   STEP  1
 BOUNDARY      1   LAYER   1   ROW     1   COL     1   RATE     2627.40      CHD-1
 BOUNDARY      2   LAYER   1   ROW     4   COL     1   RATE     4717.65    
 BOUNDARY      3   LAYER   1   ROW     5   COL     1   RATE     839.955      CHD_GP
 BOUNDARY      4   LAYER   1   ROW     6   COL     1   RATE     4304.47      CHD_GP
 BOUNDARY      5   LAYER   1   ROW    10   COL     1   RATE     1745.04      CHD-10

 HEAD WILL BE SAVED ON UNIT 1018 AT END OF TIME STEP    1, STRESS PERIOD    5
WEL   no.    1 value from time series:  -14600.     for time:  7.200     to  7.400    
WEL   no.    2 value from time series:  -30000.     for time:  7.200     to  7.400    
RIV   no.    1 value from time series:   102.57     for time:  7.200     to  7.400    
RIV   no.    2 value from time series:   102.57     for time:  7.200     to  7.400    
RIV   no.    3 value from time series:   102.57     for time:  7.200     to  7.400    
RIV   no.    4 value from time series:   102.57     for time:  7.200     to  7.400    
RIV   no.    5 value from time series:   102.57     for time:  7.200     to  7.400    
RIV   no.    6 value from time series:   102.57     for time:  7.200     to  7.400    
RIV   no.    7 value from time series:   102.57     for time:  7.200     to  7.400    
RIV   no.    8 value from time series:   102.57     for time:  7.200     to  7.400    
RIV   no.    9 value from time series:   102.57     for time:  7.200     to  7.400    
RIV   no.   10 value from time series:   102.57     for time:  7.200     to  7.400    
EVT   no.    1 value from time series:   1206.6     for time:  7.200     to  7.400    
EVT   no.    2 value from time series:   2413.1     for time:  7.200     to  7.400    
EVT   no.    3 value from time series:   3619.7     for time:  7.200     to  7.400    
EVT   no.    4 value from time series:   4826.3     for time:  7.200     to  7.400    
EVT   no.   10 value from time series:   603.28     for time:  7.200     to  7.400    
EVT   no.   11 value from time series:   1206.6     for time:  7.200     to  7.400    
EVT   no.   12 value from time series:   2413.1     for time:  7.200     to  7.400    
EVT   no.   13 value from time series:   3619.7     for time:  7.200     to  7.400    
EVT   no.   14 value from time series:   4826.3     for time:  7.200     to  7.400    
EVT   no.   20 value from time series:   603.28     for time:  7.200     to  7.400    
WEL   no.    1 value from time series:  -14600.     for time:  7.200     to  7.400    
WEL   no.    2 value from time series:  -30000.     for time:  7.200     to  7.400    
RIV   no.    1 value from time series:   102.57     for time:  7.200     to  7.400    
RIV   no.    2 value from time series:   102.57     for time:  7.200     to  7.400    
RIV   no.    3 value from time series:   102.57     for time:  7.200     to  7.400    
RIV   no.    4 value from time series:   102.57     for time:  7.200     to  7.400    
RIV   no.    5 value from time series:   102.57     for time:  7.200     to  7.400    
RIV   no.    6 value from time series:   102.57     for time:  7.200     to  7.400    
RIV   no.    7 value from time series:   102.57     for time:  7.200     to  7.400    
RIV   no.    8 value from time series:   102.57     for time:  7.200     to  7.400    
RIV   no.    9 value from time series:   102.57     for time:  7.200     to  7.400    
RIV   no.   10 value from time series:   102.57     for time:  7.200     to  7.400    
EVT   no.    1 value from time series:   1206.6     for time:  7.200     to  7.400    
EVT   no.    2 value from time series:   2413.1     for time:  7.200     to  7.400    
EVT   no.    3 value from time series:   3619.7     for time:  7.200     to  7.400    
EVT   no.    4 value from time series:   4826.3     for time:  7.200     to  7.400    
EVT   no.   10 value from time series:   603.28     for time:  7.200     to  7.400    
EVT   no.   11 value from time series:   1206.6     for time:  7.200     to  7.400    
EVT   no.   12 value from time series:   2413.1     for time:  7.200     to  7.400    
EVT   no.   13 value from time series:   3619.7     for time:  7.200     to  7.400    
EVT   no.   14 value from time series:   4826.3     for time:  7.200     to  7.400    
EVT   no.   20 value from time series:   603.28     for time:  7.200     to  7.400    

 OUTPUT CONTROL FOR STRESS PERIOD    5   TIME STEP    2
    SAVE BUDGET
    SAVE HEAD
    SAVE HEAD FOR ALL LAYERS
 UBDSV1 SAVING      STORAGE(SS) ON UNIT   1017 AT TIME STEP      2, STRESS PERIOD      5
 UBDSV1 SAVING      STORAGE(SY) ON UNIT   1017 AT TIME STEP      2, STRESS PERIOD      5
 UBDSV1 SAVING FLOW RIGHT FACE  ON UNIT   1017 AT TIME STEP      2, STRESS PERIOD      5
 UBDSV1 SAVING FLOW FRONT FACE  ON UNIT   1017 AT TIME STEP      2, STRESS PERIOD      5
 UBDSV1 SAVING FLOW LOWER FACE  ON UNIT   1017 AT TIME STEP      2, STRESS PERIOD      5
 UBDSV4 SAVING WELLS NEAR RIVER ON UNIT   1017 AT TIME STEP      2, STRESS PERIOD      5

 WELLS NEAR RIVER   PERIOD  5   STEP  2
 BOUNDARY      1   LAYER   2   ROW     8   COL     4   RATE    -14600.0      WELL_2
 BOUNDARY      2   LAYER   2   ROW     3   COL     4   RATE    -30000.0      WELL_1
 UBDSV4 SAVING RIVER            ON UNIT   1017 AT TIME STEP      2, STRESS PERIOD      5

 RIVER              PERIOD  5   STEP  2
 BOUNDARY      1   LAYER   1   ROW     1   COL    15   RATE    -5184.08    
 BOUNDARY      2   LAYER   1   ROW     2   COL    15   RATE    -5166.50      RIV2
 BOUNDARY      3   LAYER   1   ROW     3   COL    15   RATE    -5140.16      RIV3
 BOUNDARY      4   LAYER   1   ROW     4   COL    15   RATE    -5112.72    
 BOUNDARY      5   LAYER   1   ROW     5   COL    15   RATE    -5091.40    
 BOUNDARY      6   LAYER   1   ROW     6   COL    15   RATE    -5090.75    
 BOUNDARY      7   LAYER   1   ROW     7   COL    15   RATE    -5111.22      RIVX
 BOUNDARY      8   LAYER   1   ROW     8   COL    15   RATE    -5141.60      RIVX
 BOUNDARY      9   LAYER   1   ROW     9   COL    15   RATE    -5173.38      RIVX
 BOUNDARY     10   LAYER   1   ROW    10   COL    15   RATE    -5196.09    

 GHB LAKES          PERIOD  5   STEP  2
 BOUNDARY      1   LAYER   1   ROW     3   COL     1   RATE    -7981.55    
 BOUNDARY      2   LAYER   1   ROW     7   COL     1   RATE     4270.96      GHB2_UPPER
 BOUNDARY      3   LAYER   1   ROW     7   COL     1   RATE    -11043.8      GHB2_LOWER
 UBDSV4 SAVING RECHARGE         ON UNIT   1017 AT TIME STEP      2, STRESS PERIOD      5

 RECHARGE           PERIOD  5   STEP  2
 BOUNDARY      2   LAYER   1   ROW     1   COL     2   RATE     750.000    
 BOUNDARY      3   LAYER   1   ROW     1   COL     3   RATE     750.000    
 BOUNDARY      4   LAYER   1   ROW     1   COL     4   RATE     750.000    
 BOUNDARY      5   LAYER   1   ROW     1   COL     5   RATE     750.000    
 BOUNDARY      6   LAYER   1   ROW     1   COL     6   RATE     750.000    
 BOUNDARY      7   LAYER   1   ROW     1   COL     7   RATE     750.000    
 BOUNDARY      8   LAYER   1   ROW     1   COL     8   RATE     750.000    
 BOUNDARY      9   LAYER   1   ROW     1   COL     9   RATE     750.000    
 BOUNDARY     10   LAYER   1   ROW     1   COL    10   RATE     750.000    
 BOUNDARY     11   LAYER   1   ROW     1   COL    11   RATE     750.000    
 BOUNDARY     12   LAYER   1   ROW     1   COL    12   RATE     750.000    
 BOUNDARY     13   LAYER   1   ROW     1   COL    13   RATE     750.000    
 BOUNDARY     14   LAYER   1   ROW     1   COL    14   RATE     750.000    
 BOUNDARY     15   LAYER   1   ROW     1   COL    15   RATE     750.000    
 BOUNDARY     16   LAYER   1   ROW     2   COL     1   RATE     750.000    
 BOUNDARY     17   LAYER   1   ROW     2   COL     2   RATE     750.000    
 BOUNDARY     18   LAYER   1   ROW     2   COL     3   RATE     750.000    
 BOUNDARY     19   LAYER   1   ROW     2   COL     4   RATE     750.000    
 BOUNDARY     20   LAYER   1   ROW     2   COL     5   RATE     750.000    
 BOUNDARY     21   LAYER   1   ROW     2   COL     6   RATE     750.000    
 BOUNDARY     22   LAYER   1   ROW     2   COL     7   RATE     750.000    
 BOUNDARY     23   LAYER   1   ROW     2   COL     8   RATE     750.000    
 BOUNDARY     24   LAYER   1   ROW     2   COL     9   RATE     750.000    
 BOUNDARY     25   LAYER   1   ROW     2   COL    10   RATE     750.000    
 BOUNDARY     26   LAYER   1   ROW     2   COL    11   RATE     750.000    
 BOUNDARY     27   LAYER   1   ROW     2   COL    12   RATE     750.000    
 BOUNDARY     28   LAYER   1   ROW     2   COL    13   RATE     750.000    
 BOUNDARY     29   LAYER   1   ROW     2   COL    14   RATE     750.000    
 BOUNDARY     30   LAYER   1   ROW     2   COL    15   RATE     750.000    
 BOUNDARY     31   LAYER   1   ROW     3   COL     1   RATE     750.000    
 BOUNDARY     32   LAYER   1   ROW     3   COL     2   RATE     750.000    
 BOUNDARY     33   LAYER   1   ROW     3   COL     3   RATE     750.000    
 BOUNDARY     34   LAYER   1   ROW     3   COL     4   RATE     750.000    
 BOUNDARY     35   LAYER   1   ROW     3   COL     5   RATE     750.000    
 BOUNDARY     36   LAYER   1   ROW     3   COL     6   RATE     750.000    
 BOUNDARY     37   LAYER   1   ROW     3   COL     7   RATE     750.000    
 BOUNDARY     38   LAYER   1   ROW     3   COL     8   RATE     750.000    
 BOUNDARY     39   LAYER   1   ROW     3   COL     9   RATE     750.000    
 BOUNDARY     40   LAYER   1   ROW     3   COL    10   RATE     750.000    
 BOUNDARY     41   LAYER   1   ROW     3   COL    11   RATE     750.000    
 BOUNDARY     42   LAYER   1   ROW     3   COL    12   RATE     750.000    
 BOUNDARY     43   LAYER   1   ROW     3   COL    13   RATE     750.000    
 BOUNDARY     44   LAYER   1   ROW     3   COL    14   RATE     750.000    
 BOUNDARY     45   LAYER   1   ROW     3   COL    15   RATE     750.000    
 BOUNDARY     47   LAYER   1   ROW     4   COL     2   RATE     750.000    
 BOUNDARY     48   LAYER   1   ROW     4   COL     3   RATE     750.000    
 BOUNDARY     49   LAYER   1   ROW     4   COL     4   RATE     750.000    
 BOUNDARY     50   LAYER   1   ROW     4   COL     5   RATE     750.000    
 BOUNDARY     51   LAYER   1   ROW     4   COL     6   RATE     750.000    
 BOUNDARY     52   LAYER   1   ROW     4   COL     7   RATE     750.000    
 BOUNDARY     53   LAYER   1   ROW     4   COL     8   RATE     750.000    
 BOUNDARY     54   LAYER   1   ROW     4   COL     9   RATE     750.000    
 BOUNDARY     55   LAYER   1   ROW     4   COL    10   RATE     750.000    
 BOUNDARY     56   LAYER   1   ROW     4   COL    11   RATE     750.000    
 BOUNDARY     57   LAYER   1   ROW     4   COL    12   RATE     750.000    
 BOUNDARY     58   LAYER   1   ROW     4   COL    13   RATE     750.000    
 BOUNDARY     59   LAYER   1   ROW     4   COL    14   RATE     750.000    
 BOUNDARY     60   LAYER   1   ROW     4   COL    15   RATE     750.000    
 BOUNDARY     62   LAYER   1   ROW     5   COL     2   RATE     750.000    
 BOUNDARY     63   LAYER   1   ROW     5   COL     3   RATE     750.000    
 BOUNDARY     64   LAYER   1   ROW     5   COL     4   RATE     750.000    
 BOUNDARY     65   LAYER   1   ROW     5   COL     5   RATE     750.000    
 BOUNDARY     66   LAYER   1   ROW     5   COL     6   RATE     750.000    
 BOUNDARY     67   LAYER   1   ROW     5   COL     7   RATE     750.000    
 BOUNDARY     68   LAYER   1   ROW     5   COL     8   RATE     750.000    
 BOUNDARY     69   LAYER   1   ROW     5   COL     9   RATE     750.000    
 BOUNDARY     70   LAYER   1   ROW     5   COL    10   RATE     750.000    
 BOUNDARY     71   LAYER   1   ROW     5   COL    11   RATE     750.000    
 BOUNDARY     72   LAYER   1   ROW     5   COL    12   RATE     750.000    
 BOUNDARY     73   LAYER   1   ROW     5   COL    13   RATE     750.000    
 BOUNDARY     74   LAYER   1   ROW     5   COL    14   RATE     750.000    
 BOUNDARY     75   LAYER   1   ROW     5   COL    15   RATE     750.000    
 BOUNDARY     77   LAYER   1   ROW     6   COL     2   RATE     750.000    
 BOUNDARY     78   LAYER   1   ROW     6   COL     3   RATE     750.000    
 BOUNDARY     79   LAYER   1   ROW     6   COL     4   RATE     750.000    
 BOUNDARY     80   LAYER   1   ROW     6   COL     5   RATE     750.000    
 BOUNDARY     81   LAYER   1   ROW     6   COL     6   RATE     750.000    
 BOUNDARY     82   LAYER   1   ROW     6   COL     7   RATE     750.000    
 BOUNDARY     83   LAYER   1   ROW     6   COL     8   RATE     750.000    
 BOUNDARY     84   LAYER   1   ROW     6   COL     9   RATE     750.000    
 BOUNDARY     85   LAYER   1   ROW     6   COL    10   RATE     750.000    
 BOUNDARY     86   LAYER   1   ROW     6   COL    11   RATE     750.000    
 BOUNDARY     87   LAYER   1   ROW     6   COL    12   RATE     750.000    
 BOUNDARY     88   LAYER   1   ROW     6   COL    13   RATE     750.000    
 BOUNDARY     89   LAYER   1   ROW     6   COL    14   RATE     750.000    
 BOUNDARY     90   LAYER   1   ROW     6   COL    15   RATE     750.000    
 BOUNDARY     91   LAYER   1   ROW     7   COL     1   RATE     750.000    
 BOUNDARY     92   LAYER   1   ROW     7   COL     2   RATE     750.000    
 BOUNDARY     93   LAYER   1   ROW     7   COL     3   RATE     750.000    
 BOUNDARY     94   LAYER   1   ROW     7   COL     4   RATE     750.000    
 BOUNDARY     95   LAYER   1   ROW     7   COL     5   RATE     750.000    
 BOUNDARY     96   LAYER   1   ROW     7   COL     6   RATE     750.000    
 BOUNDARY     97   LAYER   1   ROW     7   COL     7   RATE     750.000    
 BOUNDARY     98   LAYER   1   ROW     7   COL     8   RATE     750.000    
 BOUNDARY     99   LAYER   1   ROW     7   COL     9   RATE     750.000    
 BOUNDARY    100   LAYER   1   ROW     7   COL    10   RATE     750.000    
 BOUNDARY    101   LAYER   1   ROW     7   COL    11   RATE     750.000    
 BOUNDARY    102   LAYER   1   ROW     7   COL    12   RATE     750.000    
 BOUNDARY    103   LAYER   1   ROW     7   COL    13   RATE     750.000    
 BOUNDARY    104   LAYER   1   ROW     7   COL    14   RATE     750.000    
 BOUNDARY    105   LAYER   1   ROW     7   COL    15   RATE     750.000    
 BOUNDARY    106   LAYER   1   ROW     8   COL     1   RATE     750.000    
 BOUNDARY    107   LAYER   1   ROW     8   COL     2   RATE     750.000    
 BOUNDARY    108   LAYER   1   ROW     8   COL     3   RATE     750.000    
 BOUNDARY    109   LAYER   1   ROW     8   COL     4   RATE     750.000    
 BOUNDARY    110   LAYER   1   ROW     8   COL     5   RATE     750.000    
 BOUNDARY    111   LAYER   1   ROW     8   COL     6   RATE     750.000    
 BOUNDARY    112   LAYER   1   ROW     8   COL     7   RATE     750.000    
 BOUNDARY    113   LAYER   1   ROW     8   COL     8   RATE     750.000    
 BOUNDARY    114   LAYER   1   ROW     8   COL     9   RATE     750.000    
 BOUNDARY    115   LAYER   1   ROW     8   COL    10   RATE     750.000    
 BOUNDARY    116   LAYER   1   ROW     8   COL    11   RATE     750.000    
 BOUNDARY    117   LAYER   1   ROW     8   COL    12   RATE     750.000    
 BOUNDARY    118   LAYER   1   ROW     8   COL    13   RATE     750.000    
 BOUNDARY    119   LAYER   1   ROW     8   COL    14   RATE     750.000    
 BOUNDARY    120   LAYER   1   ROW     8   COL    15   RATE     750.000    
 BOUNDARY    121   LAYER   1   ROW     9   COL     1   RATE     750.000    
 BOUNDARY    122   LAYER   1   ROW     9   COL     2   RATE     750.000    
 BOUNDARY    123   LAYER   1   ROW     9   COL     3   RATE     750.000    
 BOUNDARY    124   LAYER   1   ROW     9   COL     4   RATE     750.000    
 BOUNDARY    125   LAYER   1   ROW     9   COL     5   RATE     750.000    
 BOUNDARY    126   LAYER   1   ROW     9   COL     6   RATE     750.000    
 BOUNDARY    127   LAYER   1   ROW     9   COL     7   RATE     750.000    
 BOUNDARY    128   LAYER   1   ROW     9   COL     8   RATE     750.000    
 BOUNDARY    129   LAYER   1   ROW     9   COL     9   RATE     750.000    
 BOUNDARY    130   LAYER   1   ROW     9   COL    10   RATE     750.000    
 BOUNDARY    131   LAYER   1   ROW     9   COL    11   RATE     750.000    
 BOUNDARY    132   LAYER   1   ROW     9   COL    12   RATE     750.000    
 BOUNDARY    133   LAYER   1   ROW     9   COL    13   RATE     750.000    
 BOUNDARY    134   LAYER   1   ROW     9   COL    14   RATE     750.000    
 BOUNDARY    135   LAYER   1   ROW     9   COL    15   RATE     750.000    
 BOUNDARY    137   LAYER   1   ROW    10   COL     2   RATE     750.000    
 BOUNDARY    138   LAYER   1   ROW    10   COL     3   RATE     750.000    
 BOUNDARY    139   LAYER   1   ROW    10   COL     4   RATE     750.000    
 BOUNDARY    140   LAYER   1   ROW    10   COL     5   RATE     750.000    
 BOUNDARY    141   LAYER   1   ROW    10   COL     6   RATE     750.000    
 BOUNDARY    142   LAYER   1   ROW    10   COL     7   RATE     750.000    
 BOUNDARY    143   LAYER   1   ROW    10   COL     8   RATE     750.000    
 BOUNDARY    144   LAYER   1   ROW    10   COL     9   RATE     750.000    
 BOUNDARY    145   LAYER   1   ROW    10   COL    10   RATE     750.000    
 BOUNDARY    146   LAYER   1   ROW    10   COL    11   RATE     750.000    
 BOUNDARY    147   LAYER   1   ROW    10   COL    12   RATE     750.000    
 BOUNDARY    148   LAYER   1   ROW    10   COL    13   RATE     750.000    
 BOUNDARY    149   LAYER   1   ROW    10   COL    14   RATE     750.000    
 BOUNDARY    150   LAYER   1   ROW    10   COL    15   RATE     750.000    
 UBDSV4 SAVING ET SEGS          ON UNIT   1017 AT TIME STEP      2, STRESS PERIOD      5

 ET SEGS            PERIOD  5   STEP  2
 BOUNDARY      1   LAYER   1   ROW     1   COL    13   RATE    -95.8934      ET-1
 BOUNDARY      2   LAYER   1   ROW     2   COL    13   RATE    -181.520      ET-2
 BOUNDARY      3   LAYER   1   ROW     3   COL    13   RATE    -251.411      ET-3
 BOUNDARY      4   LAYER   1   ROW     4   COL    13   RATE    -306.551      ET-4
 BOUNDARY      5   LAYER   1   ROW     5   COL    13   RATE    -290.486      ET-5
 BOUNDARY      6   LAYER   1   ROW     6   COL    13   RATE    -289.635      ET-6
 BOUNDARY      7   LAYER   1   ROW     7   COL    13   RATE    -220.499      ET-7
 BOUNDARY      8   LAYER   1   ROW     8   COL    13   RATE    -173.996      ET-8
 BOUNDARY      9   LAYER   1   ROW     9   COL    13   RATE    -114.937      ET-9
 BOUNDARY     10   LAYER   1   ROW    10   COL    13   RATE    -49.6209      ET-10
 BOUNDARY     11   LAYER   1   ROW     1   COL    12   RATE    -152.956      ET-1
 BOUNDARY     12   LAYER   1   ROW     2   COL    12   RATE    -267.820      ET-2
 BOUNDARY     13   LAYER   1   ROW     3   COL    12   RATE    -350.352      ET-3
 BOUNDARY     14   LAYER   1   ROW     4   COL    12   RATE    -434.300      ET-4
 BOUNDARY     15   LAYER   1   ROW     5   COL    12   RATE    -418.033      ET-5
 BOUNDARY     16   LAYER   1   ROW     6   COL    12   RATE    -417.155      ET-6
 BOUNDARY     17   LAYER   1   ROW     7   COL    12   RATE    -313.060      ET-7
 BOUNDARY     18   LAYER   1   ROW     8   COL    12   RATE    -242.568      ET-8
 BOUNDARY     19   LAYER   1   ROW     9   COL    12   RATE    -174.600      ET-9
 BOUNDARY     20   LAYER   1   ROW    10   COL    12   RATE    -83.0771      ET-10
 UBDSV4 SAVING CONSTANT HEADS   ON UNIT   1017 AT TIME STEP      2, STRESS PERIOD      5

 CONSTANT HEADS     PERIOD  5   STEP  2
 BOUNDARY      1   LAYER   1   ROW     1   COL     1   RATE     2627.39      CHD-1
 BOUNDARY      2   LAYER   1   ROW     4   COL     1   RATE     4718.14    
 BOUNDARY      3   LAYER   1   ROW     5   COL     1   RATE     840.848      CHD_GP
 BOUNDARY      4   LAYER   1   ROW     6   COL     1   RATE     4304.88      CHD_GP
 BOUNDARY      5   LAYER   1   ROW    10   COL     1   RATE     1744.51      CHD-10

 HEAD WILL BE SAVED ON UNIT 1018 AT END OF TIME STEP    2, STRESS PERIOD    5
WEL   no.    1 value from time series:  -15000.     for time:  7.400     to  7.600    
WEL   no.    2 value from time series:  -30000.     for time:  7.400     to  7.600    
RIV   no.    1 value from time series:   102.50     for time:  7.400     to  7.600    
RIV   no.    2 value from time series:   102.50     for time:  7.400     to  7.600    
RIV   no.    3 value from time series:   102.50     for time:  7.400     to  7.600    
RIV   no.    4 value from time series:   102.50     for time:  7.400     to  7.600    
RIV   no.    5 value from time series:   102.50     for time:  7.400     to  7.600    
RIV   no.    6 value from time series:   102.50     for time:  7.400     to  7.600    
RIV   no.    7 value from time series:   102.50     for time:  7.400     to  7.600    
RIV   no.    8 value from time series:   102.50     for time:  7.400     to  7.600    
RIV   no.    9 value from time series:   102.50     for time:  7.400     to  7.600    
RIV   no.   10 value from time series:   102.50     for time:  7.400     to  7.600    
EVT   no.    1 value from time series:   1223.4     for time:  7.400     to  7.600    
EVT   no.    2 value from time series:   2446.9     for time:  7.400     to  7.600    
EVT   no.    3 value from time series:   3670.3     for time:  7.400     to  7.600    
EVT   no.    4 value from time series:   4893.8     for time:  7.400     to  7.600    
EVT   no.   10 value from time series:   611.72     for time:  7.400     to  7.600    
EVT   no.   11 value from time series:   1223.4     for time:  7.400     to  7.600    
EVT   no.   12 value from time series:   2446.9     for time:  7.400     to  7.600    
EVT   no.   13 value from time series:   3670.3     for time:  7.400     to  7.600    
EVT   no.   14 value from time series:   4893.8     for time:  7.400     to  7.600    
EVT   no.   20 value from time series:   611.72     for time:  7.400     to  7.600    
WEL   no.    1 value from time series:  -15000.     for time:  7.400     to  7.600    
WEL   no.    2 value from time series:  -30000.     for time:  7.400     to  7.600    
RIV   no.    1 value from time series:   102.50     for time:  7.400     to  7.600    
RIV   no.    2 value from time series:   102.50     for time:  7.400     to  7.600    
RIV   no.    3 value from time series:   102.50     for time:  7.400     to  7.600    
RIV   no.    4 value from time series:   102.50     for time:  7.400     to  7.600    
RIV   no.    5 value from time series:   102.50     for time:  7.400     to  7.600    
RIV   no.    6 value from time series:   102.50     for time:  7.400     to  7.600    
RIV   no.    7 value from time series:   102.50     for time:  7.400     to  7.600    
RIV   no.    8 value from time series:   102.50     for time:  7.400     to  7.600    
RIV   no.    9 value from time series:   102.50     for time:  7.400     to  7.600    
RIV   no.   10 value from time series:   102.50     for time:  7.400     to  7.600    
EVT   no.    1 value from time series:   1223.4     for time:  7.400     to  7.600    
EVT   no.    2 value from time series:   2446.9     for time:  7.400     to  7.600    
EVT   no.    3 value from time series:   3670.3     for time:  7.400     to  7.600    
EVT   no.    4 value from time series:   4893.8     for time:  7.400     to  7.600    
EVT   no.   10 value from time series:   611.72     for time:  7.400     to  7.600    
EVT   no.   11 value from time series:   1223.4     for time:  7.400     to  7.600    
EVT   no.   12 value from time series:   2446.9     for time:  7.400     to  7.600    
EVT   no.   13 value from time series:   3670.3     for time:  7.400     to  7.600    
EVT   no.   14 value from time series:   4893.8     for time:  7.400     to  7.600    
EVT   no.   20 value from time series:   611.72     for time:  7.400     to  7.600    

 OUTPUT CONTROL FOR STRESS PERIOD    5   TIME STEP    3
    SAVE BUDGET
    SAVE HEAD
    SAVE HEAD FOR ALL LAYERS
 UBDSV1 SAVING      STORAGE(SS) ON UNIT   1017 AT TIME STEP      3, STRESS PERIOD      5
 UBDSV1 SAVING      STORAGE(SY) ON UNIT   1017 AT TIME STEP      3, STRESS PERIOD      5
 UBDSV1 SAVING FLOW RIGHT FACE  ON UNIT   1017 AT TIME STEP      3, STRESS PERIOD      5
 UBDSV1 SAVING FLOW FRONT FACE  ON UNIT   1017 AT TIME STEP      3, STRESS PERIOD      5
 UBDSV1 SAVING FLOW LOWER FACE  ON UNIT   1017 AT TIME STEP      3, STRESS PERIOD      5
 UBDSV4 SAVING WELLS NEAR RIVER ON UNIT   1017 AT TIME STEP      3, STRESS PERIOD      5

 WELLS NEAR RIVER   PERIOD  5   STEP  3
 BOUNDARY      1   LAYER   2   ROW     8   COL     4   RATE    -15000.0      WELL_2
 BOUNDARY      2   LAYER   2   ROW     3   COL     4   RATE    -30000.0      WELL_1
 UBDSV4 SAVING RIVER            ON UNIT   1017 AT TIME STEP      3, STRESS PERIOD      5

 RIVER              PERIOD  5   STEP  3
 BOUNDARY      1   LAYER   1   ROW     1   COL    15   RATE    -5462.86    
 BOUNDARY      2   LAYER   1   ROW     2   COL    15   RATE    -5445.27      RIV2
 BOUNDARY      3   LAYER   1   ROW     3   COL    15   RATE    -5418.91      RIV3
 BOUNDARY      4   LAYER   1   ROW     4   COL    15   RATE    -5391.44    
 BOUNDARY      5   LAYER   1   ROW     5   COL    15   RATE    -5370.10    
 BOUNDARY      6   LAYER   1   ROW     6   COL    15   RATE    -5369.45    
 BOUNDARY      7   LAYER   1   ROW     7   COL    15   RATE    -5389.93      RIVX
 BOUNDARY      8   LAYER   1   ROW     8   COL    15   RATE    -5420.35      RIVX
 BOUNDARY      9   LAYER   1   ROW     9   COL    15   RATE    -5452.16      RIVX
 BOUNDARY     10   LAYER   1   ROW    10   COL    15   RATE    -5474.88    

 GHB LAKES          PERIOD  5   STEP  3
 BOUNDARY      1   LAYER   1   ROW     3   COL     1   RATE    -7986.09    
 BOUNDARY      2   LAYER   1   ROW     7   COL     1   RATE     4267.02      GHB2_UPPER
 BOUNDARY      3   LAYER   1   ROW     7   COL     1   RATE    -11045.2      GHB2_LOWER
 UBDSV4 SAVING RECHARGE         ON UNIT   1017 AT TIME STEP      3, STRESS PERIOD      5

 RECHARGE           PERIOD  5   STEP  3
 BOUNDARY      2   LAYER   1   ROW     1   COL     2   RATE     750.000    
 BOUNDARY      3   LAYER   1   ROW     1   COL     3   RATE     750.000    
 BOUNDARY      4   LAYER   1   ROW     1   COL     4   RATE     750.000    
 BOUNDARY      5   LAYER   1   ROW     1   COL     5   RATE     750.000    
 BOUNDARY      6   LAYER   1   ROW     1   COL     6   RATE     750.000    
 BOUNDARY      7   LAYER   1   ROW     1   COL     7   RATE     750.000    
 BOUNDARY      8   LAYER   1   ROW     1   COL     8   RATE     750.000    
 BOUNDARY      9   LAYER   1   ROW     1   COL     9   RATE     750.000    
 BOUNDARY     10   LAYER   1   ROW     1   COL    10   RATE     750.000    
 BOUNDARY     11   LAYER   1   ROW     1   COL    11   RATE     750.000    
 BOUNDARY     12   LAYER   1   ROW     1   COL    12   RATE     750.000    
 BOUNDARY     13   LAYER   1   ROW     1   COL    13   RATE     750.000    
 BOUNDARY     14   LAYER   1   ROW     1   COL    14   RATE     750.000    
 BOUNDARY     15   LAYER   1   ROW     1   COL    15   RATE     750.000    
 BOUNDARY     16   LAYER   1   ROW     2   COL     1   RATE     750.000    
 BOUNDARY     17   LAYER   1   ROW     2   COL     2   RATE     750.000    
 BOUNDARY     18   LAYER   1   ROW     2   COL     3   RATE     750.000    
 BOUNDARY     19   LAYER   1   ROW     2   COL     4   RATE     750.000    
 BOUNDARY     20   LAYER   1   ROW     2   COL     5   RATE     750.000    
 BOUNDARY     21   LAYER   1   ROW     2   COL     6   RATE     750.000    
 BOUNDARY     22   LAYER   1   ROW     2   COL     7   RATE     750.000    
 BOUNDARY     23   LAYER   1   ROW     2   COL     8   RATE     750.000    
 BOUNDARY     24   LAYER   1   ROW     2   COL     9   RATE     750.000    
 BOUNDARY     25   LAYER   1   ROW     2   COL    10   RATE     750.000    
 BOUNDARY     26   LAYER   1   ROW     2   COL    11   RATE     750.000    
 BOUNDARY     27   LAYER   1   ROW     2   COL    12   RATE     750.000    
 BOUNDARY     28   LAYER   1   ROW     2   COL    13   RATE     750.000    
 BOUNDARY     29   LAYER   1   ROW     2   COL    14   RATE     750.000    
 BOUNDARY     30   LAYER   1   ROW     2   COL    15   RATE     750.000    
 BOUNDARY     31   LAYER   1   ROW     3   COL     1   RATE     750.000    
 BOUNDARY     32   LAYER   1   ROW     3   COL     2   RATE     750.000    
 BOUNDARY     33   LAYER   1   ROW     3   COL     3   RATE     750.000    
 BOUNDARY     34   LAYER   1   ROW     3   COL     4   RATE     750.000    
 BOUNDARY     35   LAYER   1   ROW     3   COL     5   RATE     750.000    
 BOUNDARY     36   LAYER   1   ROW     3   COL     6   RATE     750.000    
 BOUNDARY     37   LAYER   1   ROW     3   COL     7   RATE     750.000    
 BOUNDARY     38   LAYER   1   ROW     3   COL     8   RATE     750.000    
 BOUNDARY     39   LAYER   1   ROW     3   COL     9   RATE     750.000    
 BOUNDARY     40   LAYER   1   ROW     3   COL    10   RATE     750.000    
 BOUNDARY     41   LAYER   1   ROW     3   COL    11   RATE     750.000    
 BOUNDARY     42   LAYER   1   ROW     3   COL    12   RATE     750.000    
 BOUNDARY     43   LAYER   1   ROW     3   COL    13   RATE     750.000    
 BOUNDARY     44   LAYER   1   ROW     3   COL    14   RATE     750.000    
 BOUNDARY     45   LAYER   1   ROW     3   COL    15   RATE     750.000    
 BOUNDARY     47   LAYER   1   ROW     4   COL     2   RATE     750.000    
 BOUNDARY     48   LAYER   1   ROW     4   COL     3   RATE     750.000    
 BOUNDARY     49   LAYER   1   ROW     4   COL     4   RATE     750.000    
 BOUNDARY     50   LAYER   1   ROW     4   COL     5   RATE     750.000    
 BOUNDARY     51   LAYER   1   ROW     4   COL     6   RATE     750.000    
 BOUNDARY     52   LAYER   1   ROW     4   COL     7   RATE     750.000    
 BOUNDARY     53   LAYER   1   ROW     4   COL     8   RATE     750.000    
 BOUNDARY     54   LAYER   1   ROW     4   COL     9   RATE     750.000    
 BOUNDARY     55   LAYER   1   ROW     4   COL    10   RATE     750.000    
 BOUNDARY     56   LAYER   1   ROW     4   COL    11   RATE     750.000    
 BOUNDARY     57   LAYER   1   ROW     4   COL    12   RATE     750.000    
 BOUNDARY     58   LAYER   1   ROW     4   COL    13   RATE     750.000    
 BOUNDARY     59   LAYER   1   ROW     4   COL    14   RATE     750.000    
 BOUNDARY     60   LAYER   1   ROW     4   COL    15   RATE     750.000    
 BOUNDARY     62   LAYER   1   ROW     5   COL     2   RATE     750.000    
 BOUNDARY     63   LAYER   1   ROW     5   COL     3   RATE     750.000    
 BOUNDARY     64   LAYER   1   ROW     5   COL     4   RATE     750.000    
 BOUNDARY     65   LAYER   1   ROW     5   COL     5   RATE     750.000    
 BOUNDARY     66   LAYER   1   ROW     5   COL     6   RATE     750.000    
 BOUNDARY     67   LAYER   1   ROW     5   COL     7   RATE     750.000    
 BOUNDARY     68   LAYER   1   ROW     5   COL     8   RATE     750.000    
 BOUNDARY     69   LAYER   1   ROW     5   COL     9   RATE     750.000    
 BOUNDARY     70   LAYER   1   ROW     5   COL    10   RATE     750.000    
 BOUNDARY     71   LAYER   1   ROW     5   COL    11   RATE     750.000    
 BOUNDARY     72   LAYER   1   ROW     5   COL    12   RATE     750.000    
 BOUNDARY     73   LAYER   1   ROW     5   COL    13   RATE     750.000    
 BOUNDARY     74   LAYER   1   ROW     5   COL    14   RATE     750.000    
 BOUNDARY     75   LAYER   1   ROW     5   COL    15   RATE     750.000    
 BOUNDARY     77   LAYER   1   ROW     6   COL     2   RATE     750.000    
 BOUNDARY     78   LAYER   1   ROW     6   COL     3   RATE     750.000    
 BOUNDARY     79   LAYER   1   ROW     6   COL     4   RATE     750.000    
 BOUNDARY     80   LAYER   1   ROW     6   COL     5   RATE     750.000    
 BOUNDARY     81   LAYER   1   ROW     6   COL     6   RATE     750.000    
 BOUNDARY     82   LAYER   1   ROW     6   COL     7   RATE     750.000    
 BOUNDARY     83   LAYER   1   ROW     6   COL     8   RATE     750.000    
 BOUNDARY     84   LAYER   1   ROW     6   COL     9   RATE     750.000    
 BOUNDARY     85   LAYER   1   ROW     6   COL    10   RATE     750.000    
 BOUNDARY     86   LAYER   1   ROW     6   COL    11   RATE     750.000    
 BOUNDARY     87   LAYER   1   ROW     6   COL    12   RATE     750.000    
 BOUNDARY     88   LAYER   1   ROW     6   COL    13   RATE     750.000    
 BOUNDARY     89   LAYER   1   ROW     6   COL    14   RATE     750.000    
 BOUNDARY     90   LAYER   1   ROW     6   COL    15   RATE     750.000    
 BOUNDARY     91   LAYER   1   ROW     7   COL     1   RATE     750.000    
 BOUNDARY     92   LAYER   1   ROW     7   COL     2   RATE     750.000    
 BOUNDARY     93   LAYER   1   ROW     7   COL     3   RATE     750.000    
 BOUNDARY     94   LAYER   1   ROW     7   COL     4   RATE     750.000    
 BOUNDARY     95   LAYER   1   ROW     7   COL     5   RATE     750.000    
 BOUNDARY     96   LAYER   1   ROW     7   COL     6   RATE     750.000    
 BOUNDARY     97   LAYER   1   ROW     7   COL     7   RATE     750.000    
 BOUNDARY     98   LAYER   1   ROW     7   COL     8   RATE     750.000    
 BOUNDARY     99   LAYER   1   ROW     7   COL     9   RATE     750.000    
 BOUNDARY    100   LAYER   1   ROW     7   COL    10   RATE     750.000    
 BOUNDARY    101   LAYER   1   ROW     7   COL    11   RATE     750.000    
 BOUNDARY    102   LAYER   1   ROW     7   COL    12   RATE     750.000    
 BOUNDARY    103   LAYER   1   ROW     7   COL    13   RATE     750.000    
 BOUNDARY    104   LAYER   1   ROW     7   COL    14   RATE     750.000    
 BOUNDARY    105   LAYER   1   ROW     7   COL    15   RATE     750.000    
 BOUNDARY    106   LAYER   1   ROW     8   COL     1   RATE     750.000    
 BOUNDARY    107   LAYER   1   ROW     8   COL     2   RATE     750.000    
 BOUNDARY    108   LAYER   1   ROW     8   COL     3   RATE     750.000    
 BOUNDARY    109   LAYER   1   ROW     8   COL     4   RATE     750.000    
 BOUNDARY    110   LAYER   1   ROW     8   COL     5   RATE     750.000    
 BOUNDARY    111   LAYER   1   ROW     8   COL     6   RATE     750.000    
 BOUNDARY    112   LAYER   1   ROW     8   COL     7   RATE     750.000    
 BOUNDARY    113   LAYER   1   ROW     8   COL     8   RATE     750.000    
 BOUNDARY    114   LAYER   1   ROW     8   COL     9   RATE     750.000    
 BOUNDARY    115   LAYER   1   ROW     8   COL    10   RATE     750.000    
 BOUNDARY    116   LAYER   1   ROW     8   COL    11   RATE     750.000    
 BOUNDARY    117   LAYER   1   ROW     8   COL    12   RATE     750.000    
 BOUNDARY    118   LAYER   1   ROW     8   COL    13   RATE     750.000    
 BOUNDARY    119   LAYER   1   ROW     8   COL    14   RATE     750.000    
 BOUNDARY    120   LAYER   1   ROW     8   COL    15   RATE     750.000    
 BOUNDARY    121   LAYER   1   ROW     9   COL     1   RATE     750.000    
 BOUNDARY    122   LAYER   1   ROW     9   COL     2   RATE     750.000    
 BOUNDARY    123   LAYER   1   ROW     9   COL     3   RATE     750.000    
 BOUNDARY    124   LAYER   1   ROW     9   COL     4   RATE     750.000    
 BOUNDARY    125   LAYER   1   ROW     9   COL     5   RATE     750.000    
 BOUNDARY    126   LAYER   1   ROW     9   COL     6   RATE     750.000    
 BOUNDARY    127   LAYER   1   ROW     9   COL     7   RATE     750.000    
 BOUNDARY    128   LAYER   1   ROW     9   COL     8   RATE     750.000    
 BOUNDARY    129   LAYER   1   ROW     9   COL     9   RATE     750.000    
 BOUNDARY    130   LAYER   1   ROW     9   COL    10   RATE     750.000    
 BOUNDARY    131   LAYER   1   ROW     9   COL    11   RATE     750.000    
 BOUNDARY    132   LAYER   1   ROW     9   COL    12   RATE     750.000    
 BOUNDARY    133   LAYER   1   ROW     9   COL    13   RATE     750.000    
 BOUNDARY    134   LAYER   1   ROW     9   COL    14   RATE     750.000    
 BOUNDARY    135   LAYER   1   ROW     9   COL    15   RATE     750.000    
 BOUNDARY    137   LAYER   1   ROW    10   COL     2   RATE     750.000    
 BOUNDARY    138   LAYER   1   ROW    10   COL     3   RATE     750.000    
 BOUNDARY    139   LAYER   1   ROW    10   COL     4   RATE     750.000    
 BOUNDARY    140   LAYER   1   ROW    10   COL     5   RATE     750.000    
 BOUNDARY    141   LAYER   1   ROW    10   COL     6   RATE     750.000    
 BOUNDARY    142   LAYER   1   ROW    10   COL     7   RATE     750.000    
 BOUNDARY    143   LAYER   1   ROW    10   COL     8   RATE     750.000    
 BOUNDARY    144   LAYER   1   ROW    10   COL     9   RATE     750.000    
 BOUNDARY    145   LAYER   1   ROW    10   COL    10   RATE     750.000    
 BOUNDARY    146   LAYER   1   ROW    10   COL    11   RATE     750.000    
 BOUNDARY    147   LAYER   1   ROW    10   COL    12   RATE     750.000    
 BOUNDARY    148   LAYER   1   ROW    10   COL    13   RATE     750.000    
 BOUNDARY    149   LAYER   1   ROW    10   COL    14   RATE     750.000    
 BOUNDARY    150   LAYER   1   ROW    10   COL    15   RATE     750.000    
 UBDSV4 SAVING ET SEGS          ON UNIT   1017 AT TIME STEP      3, STRESS PERIOD      5

 ET SEGS            PERIOD  5   STEP  3
 BOUNDARY      1   LAYER   1   ROW     1   COL    13   RATE    -97.3680      ET-1
 BOUNDARY      2   LAYER   1   ROW     2   COL    13   RATE    -184.313      ET-2
 BOUNDARY      3   LAYER   1   ROW     3   COL    13   RATE    -255.293      ET-3
 BOUNDARY      4   LAYER   1   ROW     4   COL    13   RATE    -311.310      ET-4
 BOUNDARY      5   LAYER   1   ROW     5   COL    13   RATE    -291.046      ET-5
 BOUNDARY      6   LAYER   1   ROW     6   COL    13   RATE    -290.198      ET-6
 BOUNDARY      7   LAYER   1   ROW     7   COL    13   RATE    -220.896      ET-7
 BOUNDARY      8   LAYER   1   ROW     8   COL    13   RATE    -174.280      ET-8
 BOUNDARY      9   LAYER   1   ROW     9   COL    13   RATE    -115.108      ET-9
 BOUNDARY     10   LAYER   1   ROW    10   COL    13   RATE    -50.3834      ET-10
 BOUNDARY     11   LAYER   1   ROW     1   COL    12   RATE    -155.511      ET-1
 BOUNDARY     12   LAYER   1   ROW     2   COL    12   RATE    -272.336      ET-2
 BOUNDARY     13   LAYER   1   ROW     3   COL    12   RATE    -355.587      ET-3
 BOUNDARY     14   LAYER   1   ROW     4   COL    12   RATE    -440.798      ET-4
 BOUNDARY     15   LAYER   1   ROW     5   COL    12   RATE    -418.578      ET-5
 BOUNDARY     16   LAYER   1   ROW     6   COL    12   RATE    -417.703      ET-6
 BOUNDARY     17   LAYER   1   ROW     7   COL    12   RATE    -313.445      ET-7
 BOUNDARY     18   LAYER   1   ROW     8   COL    12   RATE    -242.845      ET-8
 BOUNDARY     19   LAYER   1   ROW     9   COL    12   RATE    -175.147      ET-9
 BOUNDARY     20   LAYER   1   ROW    10   COL    12   RATE    -84.4566      ET-10
 UBDSV4 SAVING CONSTANT HEADS   ON UNIT   1017 AT TIME STEP      3, STRESS PERIOD      5

 CONSTANT HEADS     PERIOD  5   STEP  3
 BOUNDARY      1   LAYER   1   ROW     1   COL     1   RATE     2627.33      CHD-1
 BOUNDARY      2   LAYER   1   ROW     4   COL     1   RATE     4718.59    
 BOUNDARY      3   LAYER   1   ROW     5   COL     1   RATE     841.735      CHD_GP
 BOUNDARY      4   LAYER   1   ROW     6   COL     1   RATE     4305.33      CHD_GP
 BOUNDARY      5   LAYER   1   ROW    10   COL     1   RATE     1744.06      CHD-10

 HEAD WILL BE SAVED ON UNIT 1018 AT END OF TIME STEP    3, STRESS PERIOD    5
WEL   no.    1 value from time series:  -15400.     for time:  7.600     to  7.800    
WEL   no.    2 value from time series:  -30000.     for time:  7.600     to  7.800    
RIV   no.    1 value from time series:   102.43     for time:  7.600     to  7.800    
RIV   no.    2 value from time series:   102.43     for time:  7.600     to  7.800    
RIV   no.    3 value from time series:   102.43     for time:  7.600     to  7.800    
RIV   no.    4 value from time series:   102.43     for time:  7.600     to  7.800    
RIV   no.    5 value from time series:   102.43     for time:  7.600     to  7.800    
RIV   no.    6 value from time series:   102.43     for time:  7.600     to  7.800    
RIV   no.    7 value from time series:   102.43     for time:  7.600     to  7.800    
RIV   no.    8 value from time series:   102.43     for time:  7.600     to  7.800    
RIV   no.    9 value from time series:   102.43     for time:  7.600     to  7.800    
RIV   no.   10 value from time series:   102.43     for time:  7.600     to  7.800    
EVT   no.    1 value from time series:   1240.3     for time:  7.600     to  7.800    
EVT   no.    2 value from time series:   2480.6     for time:  7.600     to  7.800    
EVT   no.    3 value from time series:   3720.9     for time:  7.600     to  7.800    
EVT   no.    4 value from time series:   4961.3     for time:  7.600     to  7.800    
EVT   no.   10 value from time series:   620.16     for time:  7.600     to  7.800    
EVT   no.   11 value from time series:   1240.3     for time:  7.600     to  7.800    
EVT   no.   12 value from time series:   2480.6     for time:  7.600     to  7.800    
EVT   no.   13 value from time series:   3720.9     for time:  7.600     to  7.800    
EVT   no.   14 value from time series:   4961.3     for time:  7.600     to  7.800    
EVT   no.   20 value from time series:   620.16     for time:  7.600     to  7.800    
WEL   no.    1 value from time series:  -15400.     for time:  7.600     to  7.800    
WEL   no.    2 value from time series:  -30000.     for time:  7.600     to  7.800    
RIV   no.    1 value from time series:   102.43     for time:  7.600     to  7.800    
RIV   no.    2 value from time series:   102.43     for time:  7.600     to  7.800    
RIV   no.    3 value from time series:   102.43     for time:  7.600     to  7.800    
RIV   no.    4 value from time series:   102.43     for time:  7.600     to  7.800    
RIV   no.    5 value from time series:   102.43     for time:  7.600     to  7.800    
RIV   no.    6 value from time series:   102.43     for time:  7.600     to  7.800    
RIV   no.    7 value from time series:   102.43     for time:  7.600     to  7.800    
RIV   no.    8 value from time series:   102.43     for time:  7.600     to  7.800    
RIV   no.    9 value from time series:   102.43     for time:  7.600     to  7.800    
RIV   no.   10 value from time series:   102.43     for time:  7.600     to  7.800    
EVT   no.    1 value from time series:   1240.3     for time:  7.600     to  7.800    
EVT   no.    2 value from time series:   2480.6     for time:  7.600     to  7.800    
EVT   no.    3 value from time series:   3720.9     for time:  7.600     to  7.800    
EVT   no.    4 value from time series:   4961.3     for time:  7.600     to  7.800    
EVT   no.   10 value from time series:   620.16     for time:  7.600     to  7.800    
EVT   no.   11 value from time series:   1240.3     for time:  7.600     to  7.800    
EVT   no.   12 value from time series:   2480.6     for time:  7.600     to  7.800    
EVT   no.   13 value from time series:   3720.9     for time:  7.600     to  7.800    
EVT   no.   14 value from time series:   4961.3     for time:  7.600     to  7.800    
EVT   no.   20 value from time series:   620.16     for time:  7.600     to  7.800    

 OUTPUT CONTROL FOR STRESS PERIOD    5   TIME STEP    4
    SAVE BUDGET
    SAVE HEAD
    SAVE HEAD FOR ALL LAYERS
 UBDSV1 SAVING      STORAGE(SS) ON UNIT   1017 AT TIME STEP      4, STRESS PERIOD      5
 UBDSV1 SAVING      STORAGE(SY) ON UNIT   1017 AT TIME STEP      4, STRESS PERIOD      5
 UBDSV1 SAVING FLOW RIGHT FACE  ON UNIT   1017 AT TIME STEP      4, STRESS PERIOD      5
 UBDSV1 SAVING FLOW FRONT FACE  ON UNIT   1017 AT TIME STEP      4, STRESS PERIOD      5
 UBDSV1 SAVING FLOW LOWER FACE  ON UNIT   1017 AT TIME STEP      4, STRESS PERIOD      5
 UBDSV4 SAVING WELLS NEAR RIVER ON UNIT   1017 AT TIME STEP      4, STRESS PERIOD      5

 WELLS NEAR RIVER   PERIOD  5   STEP  4
 BOUNDARY      1   LAYER   2   ROW     8   COL     4   RATE    -15400.0      WELL_2
 BOUNDARY      2   LAYER   2   ROW     3   COL     4   RATE    -30000.0      WELL_1
 UBDSV4 SAVING RIVER            ON UNIT   1017 AT TIME STEP      4, STRESS PERIOD      5

 RIVER              PERIOD  5   STEP  4
 BOUNDARY      1   LAYER   1   ROW     1   COL    15   RATE    -5721.45    
 BOUNDARY      2   LAYER   1   ROW     2   COL    15   RATE    -5703.85      RIV2
 BOUNDARY      3   LAYER   1   ROW     3   COL    15   RATE    -5677.46      RIV3
 BOUNDARY      4   LAYER   1   ROW     4   COL    15   RATE    -5649.96    
 BOUNDARY      5   LAYER   1   ROW     5   COL    15   RATE    -5628.61    
 BOUNDARY      6   LAYER   1   ROW     6   COL    15   RATE    -5627.96    
 BOUNDARY      7   LAYER   1   ROW     7   COL    15   RATE    -5648.46      RIVX
 BOUNDARY      8   LAYER   1   ROW     8   COL    15   RATE    -5678.91      RIVX
 BOUNDARY      9   LAYER   1   ROW     9   COL    15   RATE    -5710.75      RIVX
 BOUNDARY     10   LAYER   1   ROW    10   COL    15   RATE    -5733.49    

 GHB LAKES          PERIOD  5   STEP  4
 BOUNDARY      1   LAYER   1   ROW     3   COL     1   RATE    -7990.55    
 BOUNDARY      2   LAYER   1   ROW     7   COL     1   RATE     4263.17      GHB2_UPPER
 BOUNDARY      3   LAYER   1   ROW     7   COL     1   RATE    -11046.6      GHB2_LOWER
 UBDSV4 SAVING RECHARGE         ON UNIT   1017 AT TIME STEP      4, STRESS PERIOD      5

 RECHARGE           PERIOD  5   STEP  4
 BOUNDARY      2   LAYER   1   ROW     1   COL     2   RATE     750.000    
 BOUNDARY      3   LAYER   1   ROW     1   COL     3   RATE     750.000    
 BOUNDARY      4   LAYER   1   ROW     1   COL     4   RATE     750.000    
 BOUNDARY      5   LAYER   1   ROW     1   COL     5   RATE     750.000    
 BOUNDARY      6   LAYER   1   ROW     1   COL     6   RATE     750.000    
 BOUNDARY      7   LAYER   1   ROW     1   COL     7   RATE     750.000    
 BOUNDARY      8   LAYER   1   ROW     1   COL     8   RATE     750.000    
 BOUNDARY      9   LAYER   1   ROW     1   COL     9   RATE     750.000    
 BOUNDARY     10   LAYER   1   ROW     1   COL    10   RATE     750.000    
 BOUNDARY     11   LAYER   1   ROW     1   COL    11   RATE     750.000    
 BOUNDARY     12   LAYER   1   ROW     1   COL    12   RATE     750.000    
 BOUNDARY     13   LAYER   1   ROW     1   COL    13   RATE     750.000    
 BOUNDARY     14   LAYER   1   ROW     1   COL    14   RATE     750.000    
 BOUNDARY     15   LAYER   1   ROW     1   COL    15   RATE     750.000    
 BOUNDARY     16   LAYER   1   ROW     2   COL     1   RATE     750.000    
 BOUNDARY     17   LAYER   1   ROW     2   COL     2   RATE     750.000    
 BOUNDARY     18   LAYER   1   ROW     2   COL     3   RATE     750.000    
 BOUNDARY     19   LAYER   1   ROW     2   COL     4   RATE     750.000    
 BOUNDARY     20   LAYER   1   ROW     2   COL     5   RATE     750.000    
 BOUNDARY     21   LAYER   1   ROW     2   COL     6   RATE     750.000    
 BOUNDARY     22   LAYER   1   ROW     2   COL     7   RATE     750.000    
 BOUNDARY     23   LAYER   1   ROW     2   COL     8   RATE     750.000    
 BOUNDARY     24   LAYER   1   ROW     2   COL     9   RATE     750.000    
 BOUNDARY     25   LAYER   1   ROW     2   COL    10   RATE     750.000    
 BOUNDARY     26   LAYER   1   ROW     2   COL    11   RATE     750.000    
 BOUNDARY     27   LAYER   1   ROW     2   COL    12   RATE     750.000    
 BOUNDARY     28   LAYER   1   ROW     2   COL    13   RATE     750.000    
 BOUNDARY     29   LAYER   1   ROW     2   COL    14   RATE     750.000    
 BOUNDARY     30   LAYER   1   ROW     2   COL    15   RATE     750.000    
 BOUNDARY     31   LAYER   1   ROW     3   COL     1   RATE     750.000    
 BOUNDARY     32   LAYER   1   ROW     3   COL     2   RATE     750.000    
 BOUNDARY     33   LAYER   1   ROW     3   COL     3   RATE     750.000    
 BOUNDARY     34   LAYER   1   ROW     3   COL     4   RATE     750.000    
 BOUNDARY     35   LAYER   1   ROW     3   COL     5   RATE     750.000    
 BOUNDARY     36   LAYER   1   ROW     3   COL     6   RATE     750.000    
 BOUNDARY     37   LAYER   1   ROW     3   COL     7   RATE     750.000    
 BOUNDARY     38   LAYER   1   ROW     3   COL     8   RATE     750.000    
 BOUNDARY     39   LAYER   1   ROW     3   COL     9   RATE     750.000    
 BOUNDARY     40   LAYER   1   ROW     3   COL    10   RATE     750.000    
 BOUNDARY     41   LAYER   1   ROW     3   COL    11   RATE     750.000    
 BOUNDARY     42   LAYER   1   ROW     3   COL    12   RATE     750.000    
 BOUNDARY     43   LAYER   1   ROW     3   COL    13   RATE     750.000    
 BOUNDARY     44   LAYER   1   ROW     3   COL    14   RATE     750.000    
 BOUNDARY     45   LAYER   1   ROW     3   COL    15   RATE     750.000    
 BOUNDARY     47   LAYER   1   ROW     4   COL     2   RATE     750.000    
 BOUNDARY     48   LAYER   1   ROW     4   COL     3   RATE     750.000    
 BOUNDARY     49   LAYER   1   ROW     4   COL     4   RATE     750.000    
 BOUNDARY     50   LAYER   1   ROW     4   COL     5   RATE     750.000    
 BOUNDARY     51   LAYER   1   ROW     4   COL     6   RATE     750.000    
 BOUNDARY     52   LAYER   1   ROW     4   COL     7   RATE     750.000    
 BOUNDARY     53   LAYER   1   ROW     4   COL     8   RATE     750.000    
 BOUNDARY     54   LAYER   1   ROW     4   COL     9   RATE     750.000    
 BOUNDARY     55   LAYER   1   ROW     4   COL    10   RATE     750.000    
 BOUNDARY     56   LAYER   1   ROW     4   COL    11   RATE     750.000    
 BOUNDARY     57   LAYER   1   ROW     4   COL    12   RATE     750.000    
 BOUNDARY     58   LAYER   1   ROW     4   COL    13   RATE     750.000    
 BOUNDARY     59   LAYER   1   ROW     4   COL    14   RATE     750.000    
 BOUNDARY     60   LAYER   1   ROW     4   COL    15   RATE     750.000    
 BOUNDARY     62   LAYER   1   ROW     5   COL     2   RATE     750.000    
 BOUNDARY     63   LAYER   1   ROW     5   COL     3   RATE     750.000    
 BOUNDARY     64   LAYER   1   ROW     5   COL     4   RATE     750.000    
 BOUNDARY     65   LAYER   1   ROW     5   COL     5   RATE     750.000    
 BOUNDARY     66   LAYER   1   ROW     5   COL     6   RATE     750.000    
 BOUNDARY     67   LAYER   1   ROW     5   COL     7   RATE     750.000    
 BOUNDARY     68   LAYER   1   ROW     5   COL     8   RATE     750.000    
 BOUNDARY     69   LAYER   1   ROW     5   COL     9   RATE     750.000    
 BOUNDARY     70   LAYER   1   ROW     5   COL    10   RATE     750.000    
 BOUNDARY     71   LAYER   1   ROW     5   COL    11   RATE     750.000    
 BOUNDARY     72   LAYER   1   ROW     5   COL    12   RATE     750.000    
 BOUNDARY     73   LAYER   1   ROW     5   COL    13   RATE     750.000    
 BOUNDARY     74   LAYER   1   ROW     5   COL    14   RATE     750.000    
 BOUNDARY     75   LAYER   1   ROW     5   COL    15   RATE     750.000    
 BOUNDARY     77   LAYER   1   ROW     6   COL     2   RATE     750.000    
 BOUNDARY     78   LAYER   1   ROW     6   COL     3   RATE     750.000    
 BOUNDARY     79   LAYER   1   ROW     6   COL     4   RATE     750.000    
 BOUNDARY     80   LAYER   1   ROW     6   COL     5   RATE     750.000    
 BOUNDARY     81   LAYER   1   ROW     6   COL     6   RATE     750.000    
 BOUNDARY     82   LAYER   1   ROW     6   COL     7   RATE     750.000    
 BOUNDARY     83   LAYER   1   ROW     6   COL     8   RATE     750.000    
 BOUNDARY     84   LAYER   1   ROW     6   COL     9   RATE     750.000    
 BOUNDARY     85   LAYER   1   ROW     6   COL    10   RATE     750.000    
 BOUNDARY     86   LAYER   1   ROW     6   COL    11   RATE     750.000    
 BOUNDARY     87   LAYER   1   ROW     6   COL    12   RATE     750.000    
 BOUNDARY     88   LAYER   1   ROW     6   COL    13   RATE     750.000    
 BOUNDARY     89   LAYER   1   ROW     6   COL    14   RATE     750.000    
 BOUNDARY     90   LAYER   1   ROW     6   COL    15   RATE     750.000    
 BOUNDARY     91   LAYER   1   ROW     7   COL     1   RATE     750.000    
 BOUNDARY     92   LAYER   1   ROW     7   COL     2   RATE     750.000    
 BOUNDARY     93   LAYER   1   ROW     7   COL     3   RATE     750.000    
 BOUNDARY     94   LAYER   1   ROW     7   COL     4   RATE     750.000    
 BOUNDARY     95   LAYER   1   ROW     7   COL     5   RATE     750.000    
 BOUNDARY     96   LAYER   1   ROW     7   COL     6   RATE     750.000    
 BOUNDARY     97   LAYER   1   ROW     7   COL     7   RATE     750.000    
 BOUNDARY     98   LAYER   1   ROW     7   COL     8   RATE     750.000    
 BOUNDARY     99   LAYER   1   ROW     7   COL     9   RATE     750.000    
 BOUNDARY    100   LAYER   1   ROW     7   COL    10   RATE     750.000    
 BOUNDARY    101   LAYER   1   ROW     7   COL    11   RATE     750.000    
 BOUNDARY    102   LAYER   1   ROW     7   COL    12   RATE     750.000    
 BOUNDARY    103   LAYER   1   ROW     7   COL    13   RATE     750.000    
 BOUNDARY    104   LAYER   1   ROW     7   COL    14   RATE     750.000    
 BOUNDARY    105   LAYER   1   ROW     7   COL    15   RATE     750.000    
 BOUNDARY    106   LAYER   1   ROW     8   COL     1   RATE     750.000    
 BOUNDARY    107   LAYER   1   ROW     8   COL     2   RATE     750.000    
 BOUNDARY    108   LAYER   1   ROW     8   COL     3   RATE     750.000    
 BOUNDARY    109   LAYER   1   ROW     8   COL     4   RATE     750.000    
 BOUNDARY    110   LAYER   1   ROW     8   COL     5   RATE     750.000    
 BOUNDARY    111   LAYER   1   ROW     8   COL     6   RATE     750.000    
 BOUNDARY    112   LAYER   1   ROW     8   COL     7   RATE     750.000    
 BOUNDARY    113   LAYER   1   ROW     8   COL     8   RATE     750.000    
 BOUNDARY    114   LAYER   1   ROW     8   COL     9   RATE     750.000    
 BOUNDARY    115   LAYER   1   ROW     8   COL    10   RATE     750.000    
 BOUNDARY    116   LAYER   1   ROW     8   COL    11   RATE     750.000    
 BOUNDARY    117   LAYER   1   ROW     8   COL    12   RATE     750.000    
 BOUNDARY    118   LAYER   1   ROW     8   COL    13   RATE     750.000    
 BOUNDARY    119   LAYER   1   ROW     8   COL    14   RATE     750.000    
 BOUNDARY    120   LAYER   1   ROW     8   COL    15   RATE     750.000    
 BOUNDARY    121   LAYER   1   ROW     9   COL     1   RATE     750.000    
 BOUNDARY    122   LAYER   1   ROW     9   COL     2   RATE     750.000    
 BOUNDARY    123   LAYER   1   ROW     9   COL     3   RATE     750.000    
 BOUNDARY    124   LAYER   1   ROW     9   COL     4   RATE     750.000    
 BOUNDARY    125   LAYER   1   ROW     9   COL     5   RATE     750.000    
 BOUNDARY    126   LAYER   1   ROW     9   COL     6   RATE     750.000    
 BOUNDARY    127   LAYER   1   ROW     9   COL     7   RATE     750.000    
 BOUNDARY    128   LAYER   1   ROW     9   COL     8   RATE     750.000    
 BOUNDARY    129   LAYER   1   ROW     9   COL     9   RATE     750.000    
 BOUNDARY    130   LAYER   1   ROW     9   COL    10   RATE     750.000    
 BOUNDARY    131   LAYER   1   ROW     9   COL    11   RATE     750.000    
 BOUNDARY    132   LAYER   1   ROW     9   COL    12   RATE     750.000    
 BOUNDARY    133   LAYER   1   ROW     9   COL    13   RATE     750.000    
 BOUNDARY    134   LAYER   1   ROW     9   COL    14   RATE     750.000    
 BOUNDARY    135   LAYER   1   ROW     9   COL    15   RATE     750.000    
 BOUNDARY    137   LAYER   1   ROW    10   COL     2   RATE     750.000    
 BOUNDARY    138   LAYER   1   ROW    10   COL     3   RATE     750.000    
 BOUNDARY    139   LAYER   1   ROW    10   COL     4   RATE     750.000    
 BOUNDARY    140   LAYER   1   ROW    10   COL     5   RATE     750.000    
 BOUNDARY    141   LAYER   1   ROW    10   COL     6   RATE     750.000    
 BOUNDARY    142   LAYER   1   ROW    10   COL     7   RATE     750.000    
 BOUNDARY    143   LAYER   1   ROW    10   COL     8   RATE     750.000    
 BOUNDARY    144   LAYER   1   ROW    10   COL     9   RATE     750.000    
 BOUNDARY    145   LAYER   1   ROW    10   COL    10   RATE     750.000    
 BOUNDARY    146   LAYER   1   ROW    10   COL    11   RATE     750.000    
 BOUNDARY    147   LAYER   1   ROW    10   COL    12   RATE     750.000    
 BOUNDARY    148   LAYER   1   ROW    10   COL    13   RATE     750.000    
 BOUNDARY    149   LAYER   1   ROW    10   COL    14   RATE     750.000    
 BOUNDARY    150   LAYER   1   ROW    10   COL    15   RATE     750.000    
 UBDSV4 SAVING ET SEGS          ON UNIT   1017 AT TIME STEP      4, STRESS PERIOD      5

 ET SEGS            PERIOD  5   STEP  4
 BOUNDARY      1   LAYER   1   ROW     1   COL    13   RATE    -98.8461      ET-1
 BOUNDARY      2   LAYER   1   ROW     2   COL    13   RATE    -187.112      ET-2
 BOUNDARY      3   LAYER   1   ROW     3   COL    13   RATE    -259.183      ET-3
 BOUNDARY      4   LAYER   1   ROW     4   COL    13   RATE    -316.080      ET-4
 BOUNDARY      5   LAYER   1   ROW     5   COL    13   RATE    -291.607      ET-5
 BOUNDARY      6   LAYER   1   ROW     6   COL    13   RATE    -290.760      ET-6
 BOUNDARY      7   LAYER   1   ROW     7   COL    13   RATE    -221.292      ET-7
 BOUNDARY      8   LAYER   1   ROW     8   COL    13   RATE    -174.565      ET-8
 BOUNDARY      9   LAYER   1   ROW     9   COL    13   RATE    -115.280      ET-9
 BOUNDARY     10   LAYER   1   ROW    10   COL    13   RATE    -51.1479      ET-10
 BOUNDARY     11   LAYER   1   ROW     1   COL    12   RATE    -158.075      ET-1
 BOUNDARY     12   LAYER   1   ROW     2   COL    12   RATE    -276.868      ET-2
 BOUNDARY     13   LAYER   1   ROW     3   COL    12   RATE    -360.828      ET-3
 BOUNDARY     14   LAYER   1   ROW     4   COL    12   RATE    -447.304      ET-4
 BOUNDARY     15   LAYER   1   ROW     5   COL    12   RATE    -419.122      ET-5
 BOUNDARY     16   LAYER   1   ROW     6   COL    12   RATE    -418.249      ET-6
 BOUNDARY     17   LAYER   1   ROW     7   COL    12   RATE    -313.831      ET-7
 BOUNDARY     18   LAYER   1   ROW     8   COL    12   RATE    -243.122      ET-8
 BOUNDARY     19   LAYER   1   ROW     9   COL    12   RATE    -175.693      ET-9
 BOUNDARY     20   LAYER   1   ROW    10   COL    12   RATE    -85.8417      ET-10
 UBDSV4 SAVING CONSTANT HEADS   ON UNIT   1017 AT TIME STEP      4, STRESS PERIOD      5

 CONSTANT HEADS     PERIOD  5   STEP  4
 BOUNDARY      1   LAYER   1   ROW     1   COL     1   RATE     2627.23      CHD-1
 BOUNDARY      2   LAYER   1   ROW     4   COL     1   RATE     4719.01    
 BOUNDARY      3   LAYER   1   ROW     5   COL     1   RATE     842.613      CHD_GP
 BOUNDARY      4   LAYER   1   ROW     6   COL     1   RATE     4305.82      CHD_GP
 BOUNDARY      5   LAYER   1   ROW    10   COL     1   RATE     1743.68      CHD-10

 HEAD WILL BE SAVED ON UNIT 1018 AT END OF TIME STEP    4, STRESS PERIOD    5
WEL   no.    1 value from time series:  -15800.     for time:  7.800     to  8.000    
WEL   no.    2 value from time series:  -30000.     for time:  7.800     to  8.000    
RIV   no.    1 value from time series:   102.37     for time:  7.800     to  8.000    
RIV   no.    2 value from time series:   102.37     for time:  7.800     to  8.000    
RIV   no.    3 value from time series:   102.37     for time:  7.800     to  8.000    
RIV   no.    4 value from time series:   102.37     for time:  7.800     to  8.000    
RIV   no.    5 value from time series:   102.37     for time:  7.800     to  8.000    
RIV   no.    6 value from time series:   102.37     for time:  7.800     to  8.000    
RIV   no.    7 value from time series:   102.37     for time:  7.800     to  8.000    
RIV   no.    8 value from time series:   102.37     for time:  7.800     to  8.000    
RIV   no.    9 value from time series:   102.37     for time:  7.800     to  8.000    
RIV   no.   10 value from time series:   102.37     for time:  7.800     to  8.000    
EVT   no.    1 value from time series:   1257.2     for time:  7.800     to  8.000    
EVT   no.    2 value from time series:   2514.4     for time:  7.800     to  8.000    
EVT   no.    3 value from time series:   3771.6     for time:  7.800     to  8.000    
EVT   no.    4 value from time series:   5028.8     for time:  7.800     to  8.000    
EVT   no.   10 value from time series:   628.59     for time:  7.800     to  8.000    
EVT   no.   11 value from time series:   1257.2     for time:  7.800     to  8.000    
EVT   no.   12 value from time series:   2514.4     for time:  7.800     to  8.000    
EVT   no.   13 value from time series:   3771.6     for time:  7.800     to  8.000    
EVT   no.   14 value from time series:   5028.8     for time:  7.800     to  8.000    
EVT   no.   20 value from time series:   628.59     for time:  7.800     to  8.000    
WEL   no.    1 value from time series:  -15800.     for time:  7.800     to  8.000    
WEL   no.    2 value from time series:  -30000.     for time:  7.800     to  8.000    
RIV   no.    1 value from time series:   102.37     for time:  7.800     to  8.000    
RIV   no.    2 value from time series:   102.37     for time:  7.800     to  8.000    
RIV   no.    3 value from time series:   102.37     for time:  7.800     to  8.000    
RIV   no.    4 value from time series:   102.37     for time:  7.800     to  8.000    
RIV   no.    5 value from time series:   102.37     for time:  7.800     to  8.000    
RIV   no.    6 value from time series:   102.37     for time:  7.800     to  8.000    
RIV   no.    7 value from time series:   102.37     for time:  7.800     to  8.000    
RIV   no.    8 value from time series:   102.37     for time:  7.800     to  8.000    
RIV   no.    9 value from time series:   102.37     for time:  7.800     to  8.000    
RIV   no.   10 value from time series:   102.37     for time:  7.800     to  8.000    
EVT   no.    1 value from time series:   1257.2     for time:  7.800     to  8.000    
EVT   no.    2 value from time series:   2514.4     for time:  7.800     to  8.000    
EVT   no.    3 value from time series:   3771.6     for time:  7.800     to  8.000    
EVT   no.    4 value from time series:   5028.8     for time:  7.800     to  8.000    
EVT   no.   10 value from time series:   628.59     for time:  7.800     to  8.000    
EVT   no.   11 value from time series:   1257.2     for time:  7.800     to  8.000    
EVT   no.   12 value from time series:   2514.4     for time:  7.800     to  8.000    
EVT   no.   13 value from time series:   3771.6     for time:  7.800     to  8.000    
EVT   no.   14 value from time series:   5028.8     for time:  7.800     to  8.000    
EVT   no.   20 value from time series:   628.59     for time:  7.800     to  8.000    

 OUTPUT CONTROL FOR STRESS PERIOD    5   TIME STEP    5
    SAVE BUDGET
    SAVE HEAD
    SAVE HEAD FOR ALL LAYERS
 UBDSV1 SAVING      STORAGE(SS) ON UNIT   1017 AT TIME STEP      5, STRESS PERIOD      5
 UBDSV1 SAVING      STORAGE(SY) ON UNIT   1017 AT TIME STEP      5, STRESS PERIOD      5
 UBDSV1 SAVING FLOW RIGHT FACE  ON UNIT   1017 AT TIME STEP      5, STRESS PERIOD      5
 UBDSV1 SAVING FLOW FRONT FACE  ON UNIT   1017 AT TIME STEP      5, STRESS PERIOD      5
 UBDSV1 SAVING FLOW LOWER FACE  ON UNIT   1017 AT TIME STEP      5, STRESS PERIOD      5
 UBDSV4 SAVING WELLS NEAR RIVER ON UNIT   1017 AT TIME STEP      5, STRESS PERIOD      5

 WELLS NEAR RIVER   PERIOD  5   STEP  5
 BOUNDARY      1   LAYER   2   ROW     8   COL     4   RATE    -15800.0      WELL_2
 BOUNDARY      2   LAYER   2   ROW     3   COL     4   RATE    -30000.0      WELL_1
 UBDSV4 SAVING RIVER            ON UNIT   1017 AT TIME STEP      5, STRESS PERIOD      5

 RIVER              PERIOD  5   STEP  5
 BOUNDARY      1   LAYER   1   ROW     1   COL    15   RATE    -5961.41    
 BOUNDARY      2   LAYER   1   ROW     2   COL    15   RATE    -5943.79      RIV2
 BOUNDARY      3   LAYER   1   ROW     3   COL    15   RATE    -5917.38      RIV3
 BOUNDARY      4   LAYER   1   ROW     4   COL    15   RATE    -5889.85    
 BOUNDARY      5   LAYER   1   ROW     5   COL    15   RATE    -5868.48    
 BOUNDARY      6   LAYER   1   ROW     6   COL    15   RATE    -5867.83    
 BOUNDARY      7   LAYER   1   ROW     7   COL    15   RATE    -5888.36      RIVX
 BOUNDARY      8   LAYER   1   ROW     8   COL    15   RATE    -5918.83      RIVX
 BOUNDARY      9   LAYER   1   ROW     9   COL    15   RATE    -5950.70      RIVX
 BOUNDARY     10   LAYER   1   ROW    10   COL    15   RATE    -5973.46    

 GHB LAKES          PERIOD  5   STEP  5
 BOUNDARY      1   LAYER   1   ROW     3   COL     1   RATE    -7994.93    
 BOUNDARY      2   LAYER   1   ROW     7   COL     1   RATE     4259.40      GHB2_UPPER
 BOUNDARY      3   LAYER   1   ROW     7   COL     1   RATE    -11047.9      GHB2_LOWER
 UBDSV4 SAVING RECHARGE         ON UNIT   1017 AT TIME STEP      5, STRESS PERIOD      5

 RECHARGE           PERIOD  5   STEP  5
 BOUNDARY      2   LAYER   1   ROW     1   COL     2   RATE     750.000    
 BOUNDARY      3   LAYER   1   ROW     1   COL     3   RATE     750.000    
 BOUNDARY      4   LAYER   1   ROW     1   COL     4   RATE     750.000    
 BOUNDARY      5   LAYER   1   ROW     1   COL     5   RATE     750.000    
 BOUNDARY      6   LAYER   1   ROW     1   COL     6   RATE     750.000    
 BOUNDARY      7   LAYER   1   ROW     1   COL     7   RATE     750.000    
 BOUNDARY      8   LAYER   1   ROW     1   COL     8   RATE     750.000    
 BOUNDARY      9   LAYER   1   ROW     1   COL     9   RATE     750.000    
 BOUNDARY     10   LAYER   1   ROW     1   COL    10   RATE     750.000    
 BOUNDARY     11   LAYER   1   ROW     1   COL    11   RATE     750.000    
 BOUNDARY     12   LAYER   1   ROW     1   COL    12   RATE     750.000    
 BOUNDARY     13   LAYER   1   ROW     1   COL    13   RATE     750.000    
 BOUNDARY     14   LAYER   1   ROW     1   COL    14   RATE     750.000    
 BOUNDARY     15   LAYER   1   ROW     1   COL    15   RATE     750.000    
 BOUNDARY     16   LAYER   1   ROW     2   COL     1   RATE     750.000    
 BOUNDARY     17   LAYER   1   ROW     2   COL     2   RATE     750.000    
 BOUNDARY     18   LAYER   1   ROW     2   COL     3   RATE     750.000    
 BOUNDARY     19   LAYER   1   ROW     2   COL     4   RATE     750.000    
 BOUNDARY     20   LAYER   1   ROW     2   COL     5   RATE     750.000    
 BOUNDARY     21   LAYER   1   ROW     2   COL     6   RATE     750.000    
 BOUNDARY     22   LAYER   1   ROW     2   COL     7   RATE     750.000    
 BOUNDARY     23   LAYER   1   ROW     2   COL     8   RATE     750.000    
 BOUNDARY     24   LAYER   1   ROW     2   COL     9   RATE     750.000    
 BOUNDARY     25   LAYER   1   ROW     2   COL    10   RATE     750.000    
 BOUNDARY     26   LAYER   1   ROW     2   COL    11   RATE     750.000    
 BOUNDARY     27   LAYER   1   ROW     2   COL    12   RATE     750.000    
 BOUNDARY     28   LAYER   1   ROW     2   COL    13   RATE     750.000    
 BOUNDARY     29   LAYER   1   ROW     2   COL    14   RATE     750.000    
 BOUNDARY     30   LAYER   1   ROW     2   COL    15   RATE     750.000    
 BOUNDARY     31   LAYER   1   ROW     3   COL     1   RATE     750.000    
 BOUNDARY     32   LAYER   1   ROW     3   COL     2   RATE     750.000    
 BOUNDARY     33   LAYER   1   ROW     3   COL     3   RATE     750.000    
 BOUNDARY     34   LAYER   1   ROW     3   COL     4   RATE     750.000    
 BOUNDARY     35   LAYER   1   ROW     3   COL     5   RATE     750.000    
 BOUNDARY     36   LAYER   1   ROW     3   COL     6   RATE     750.000    
 BOUNDARY     37   LAYER   1   ROW     3   COL     7   RATE     750.000    
 BOUNDARY     38   LAYER   1   ROW     3   COL     8   RATE     750.000    
 BOUNDARY     39   LAYER   1   ROW     3   COL     9   RATE     750.000    
 BOUNDARY     40   LAYER   1   ROW     3   COL    10   RATE     750.000    
 BOUNDARY     41   LAYER   1   ROW     3   COL    11   RATE     750.000    
 BOUNDARY     42   LAYER   1   ROW     3   COL    12   RATE     750.000    
 BOUNDARY     43   LAYER   1   ROW     3   COL    13   RATE     750.000    
 BOUNDARY     44   LAYER   1   ROW     3   COL    14   RATE     750.000    
 BOUNDARY     45   LAYER   1   ROW     3   COL    15   RATE     750.000    
 BOUNDARY     47   LAYER   1   ROW     4   COL     2   RATE     750.000    
 BOUNDARY     48   LAYER   1   ROW     4   COL     3   RATE     750.000    
 BOUNDARY     49   LAYER   1   ROW     4   COL     4   RATE     750.000    
 BOUNDARY     50   LAYER   1   ROW     4   COL     5   RATE     750.000    
 BOUNDARY     51   LAYER   1   ROW     4   COL     6   RATE     750.000    
 BOUNDARY     52   LAYER   1   ROW     4   COL     7   RATE     750.000    
 BOUNDARY     53   LAYER   1   ROW     4   COL     8   RATE     750.000    
 BOUNDARY     54   LAYER   1   ROW     4   COL     9   RATE     750.000    
 BOUNDARY     55   LAYER   1   ROW     4   COL    10   RATE     750.000    
 BOUNDARY     56   LAYER   1   ROW     4   COL    11   RATE     750.000    
 BOUNDARY     57   LAYER   1   ROW     4   COL    12   RATE     750.000    
 BOUNDARY     58   LAYER   1   ROW     4   COL    13   RATE     750.000    
 BOUNDARY     59   LAYER   1   ROW     4   COL    14   RATE     750.000    
 BOUNDARY     60   LAYER   1   ROW     4   COL    15   RATE     750.000    
 BOUNDARY     62   LAYER   1   ROW     5   COL     2   RATE     750.000    
 BOUNDARY     63   LAYER   1   ROW     5   COL     3   RATE     750.000    
 BOUNDARY     64   LAYER   1   ROW     5   COL     4   RATE     750.000    
 BOUNDARY     65   LAYER   1   ROW     5   COL     5   RATE     750.000    
 BOUNDARY     66   LAYER   1   ROW     5   COL     6   RATE     750.000    
 BOUNDARY     67   LAYER   1   ROW     5   COL     7   RATE     750.000    
 BOUNDARY     68   LAYER   1   ROW     5   COL     8   RATE     750.000    
 BOUNDARY     69   LAYER   1   ROW     5   COL     9   RATE     750.000    
 BOUNDARY     70   LAYER   1   ROW     5   COL    10   RATE     750.000    
 BOUNDARY     71   LAYER   1   ROW     5   COL    11   RATE     750.000    
 BOUNDARY     72   LAYER   1   ROW     5   COL    12   RATE     750.000    
 BOUNDARY     73   LAYER   1   ROW     5   COL    13   RATE     750.000    
 BOUNDARY     74   LAYER   1   ROW     5   COL    14   RATE     750.000    
 BOUNDARY     75   LAYER   1   ROW     5   COL    15   RATE     750.000    
 BOUNDARY     77   LAYER   1   ROW     6   COL     2   RATE     750.000    
 BOUNDARY     78   LAYER   1   ROW     6   COL     3   RATE     750.000    
 BOUNDARY     79   LAYER   1   ROW     6   COL     4   RATE     750.000    
 BOUNDARY     80   LAYER   1   ROW     6   COL     5   RATE     750.000    
 BOUNDARY     81   LAYER   1   ROW     6   COL     6   RATE     750.000    
 BOUNDARY     82   LAYER   1   ROW     6   COL     7   RATE     750.000    
 BOUNDARY     83   LAYER   1   ROW     6   COL     8   RATE     750.000    
 BOUNDARY     84   LAYER   1   ROW     6   COL     9   RATE     750.000    
 BOUNDARY     85   LAYER   1   ROW     6   COL    10   RATE     750.000    
 BOUNDARY     86   LAYER   1   ROW     6   COL    11   RATE     750.000    
 BOUNDARY     87   LAYER   1   ROW     6   COL    12   RATE     750.000    
 BOUNDARY     88   LAYER   1   ROW     6   COL    13   RATE     750.000    
 BOUNDARY     89   LAYER   1   ROW     6   COL    14   RATE     750.000    
 BOUNDARY     90   LAYER   1   ROW     6   COL    15   RATE     750.000    
 BOUNDARY     91   LAYER   1   ROW     7   COL     1   RATE     750.000    
 BOUNDARY     92   LAYER   1   ROW     7   COL     2   RATE     750.000    
 BOUNDARY     93   LAYER   1   ROW     7   COL     3   RATE     750.000    
 BOUNDARY     94   LAYER   1   ROW     7   COL     4   RATE     750.000    
 BOUNDARY     95   LAYER   1   ROW     7   COL     5   RATE     750.000    
 BOUNDARY     96   LAYER   1   ROW     7   COL     6   RATE     750.000    
 BOUNDARY     97   LAYER   1   ROW     7   COL     7   RATE     750.000    
 BOUNDARY     98   LAYER   1   ROW     7   COL     8   RATE     750.000    
 BOUNDARY     99   LAYER   1   ROW     7   COL     9   RATE     750.000    
 BOUNDARY    100   LAYER   1   ROW     7   COL    10   RATE     750.000    
 BOUNDARY    101   LAYER   1   ROW     7   COL    11   RATE     750.000    
 BOUNDARY    102   LAYER   1   ROW     7   COL    12   RATE     750.000    
 BOUNDARY    103   LAYER   1   ROW     7   COL    13   RATE     750.000    
 BOUNDARY    104   LAYER   1   ROW     7   COL    14   RATE     750.000    
 BOUNDARY    105   LAYER   1   ROW     7   COL    15   RATE     750.000    
 BOUNDARY    106   LAYER   1   ROW     8   COL     1   RATE     750.000    
 BOUNDARY    107   LAYER   1   ROW     8   COL     2   RATE     750.000    
 BOUNDARY    108   LAYER   1   ROW     8   COL     3   RATE     750.000    
 BOUNDARY    109   LAYER   1   ROW     8   COL     4   RATE     750.000    
 BOUNDARY    110   LAYER   1   ROW     8   COL     5   RATE     750.000    
 BOUNDARY    111   LAYER   1   ROW     8   COL     6   RATE     750.000    
 BOUNDARY    112   LAYER   1   ROW     8   COL     7   RATE     750.000    
 BOUNDARY    113   LAYER   1   ROW     8   COL     8   RATE     750.000    
 BOUNDARY    114   LAYER   1   ROW     8   COL     9   RATE     750.000    
 BOUNDARY    115   LAYER   1   ROW     8   COL    10   RATE     750.000    
 BOUNDARY    116   LAYER   1   ROW     8   COL    11   RATE     750.000    
 BOUNDARY    117   LAYER   1   ROW     8   COL    12   RATE     750.000    
 BOUNDARY    118   LAYER   1   ROW     8   COL    13   RATE     750.000    
 BOUNDARY    119   LAYER   1   ROW     8   COL    14   RATE     750.000    
 BOUNDARY    120   LAYER   1   ROW     8   COL    15   RATE     750.000    
 BOUNDARY    121   LAYER   1   ROW     9   COL     1   RATE     750.000    
 BOUNDARY    122   LAYER   1   ROW     9   COL     2   RATE     750.000    
 BOUNDARY    123   LAYER   1   ROW     9   COL     3   RATE     750.000    
 BOUNDARY    124   LAYER   1   ROW     9   COL     4   RATE     750.000    
 BOUNDARY    125   LAYER   1   ROW     9   COL     5   RATE     750.000    
 BOUNDARY    126   LAYER   1   ROW     9   COL     6   RATE     750.000    
 BOUNDARY    127   LAYER   1   ROW     9   COL     7   RATE     750.000    
 BOUNDARY    128   LAYER   1   ROW     9   COL     8   RATE     750.000    
 BOUNDARY    129   LAYER   1   ROW     9   COL     9   RATE     750.000    
 BOUNDARY    130   LAYER   1   ROW     9   COL    10   RATE     750.000    
 BOUNDARY    131   LAYER   1   ROW     9   COL    11   RATE     750.000    
 BOUNDARY    132   LAYER   1   ROW     9   COL    12   RATE     750.000    
 BOUNDARY    133   LAYER   1   ROW     9   COL    13   RATE     750.000    
 BOUNDARY    134   LAYER   1   ROW     9   COL    14   RATE     750.000    
 BOUNDARY    135   LAYER   1   ROW     9   COL    15   RATE     750.000    
 BOUNDARY    137   LAYER   1   ROW    10   COL     2   RATE     750.000    
 BOUNDARY    138   LAYER   1   ROW    10   COL     3   RATE     750.000    
 BOUNDARY    139   LAYER   1   ROW    10   COL     4   RATE     750.000    
 BOUNDARY    140   LAYER   1   ROW    10   COL     5   RATE     750.000    
 BOUNDARY    141   LAYER   1   ROW    10   COL     6   RATE     750.000    
 BOUNDARY    142   LAYER   1   ROW    10   COL     7   RATE     750.000    
 BOUNDARY    143   LAYER   1   ROW    10   COL     8   RATE     750.000    
 BOUNDARY    144   LAYER   1   ROW    10   COL     9   RATE     750.000    
 BOUNDARY    145   LAYER   1   ROW    10   COL    10   RATE     750.000    
 BOUNDARY    146   LAYER   1   ROW    10   COL    11   RATE     750.000    
 BOUNDARY    147   LAYER   1   ROW    10   COL    12   RATE     750.000    
 BOUNDARY    148   LAYER   1   ROW    10   COL    13   RATE     750.000    
 BOUNDARY    149   LAYER   1   ROW    10   COL    14   RATE     750.000    
 BOUNDARY    150   LAYER   1   ROW    10   COL    15   RATE     750.000    
 UBDSV4 SAVING ET SEGS          ON UNIT   1017 AT TIME STEP      5, STRESS PERIOD      5

 ET SEGS            PERIOD  5   STEP  5
 BOUNDARY      1   LAYER   1   ROW     1   COL    13   RATE    -100.328      ET-1
 BOUNDARY      2   LAYER   1   ROW     2   COL    13   RATE    -189.917      ET-2
 BOUNDARY      3   LAYER   1   ROW     3   COL    13   RATE    -263.080      ET-3
 BOUNDARY      4   LAYER   1   ROW     4   COL    13   RATE    -320.859      ET-4
 BOUNDARY      5   LAYER   1   ROW     5   COL    13   RATE    -292.167      ET-5
 BOUNDARY      6   LAYER   1   ROW     6   COL    13   RATE    -291.322      ET-6
 BOUNDARY      7   LAYER   1   ROW     7   COL    13   RATE    -221.689      ET-7
 BOUNDARY      8   LAYER   1   ROW     8   COL    13   RATE    -174.849      ET-8
 BOUNDARY      9   LAYER   1   ROW     9   COL    13   RATE    -115.451      ET-9
 BOUNDARY     10   LAYER   1   ROW    10   COL    13   RATE    -51.9142      ET-10
 BOUNDARY     11   LAYER   1   ROW     1   COL    12   RATE    -160.650      ET-1
 BOUNDARY     12   LAYER   1   ROW     2   COL    12   RATE    -281.415      ET-2
 BOUNDARY     13   LAYER   1   ROW     3   COL    12   RATE    -366.075      ET-3
 BOUNDARY     14   LAYER   1   ROW     4   COL    12   RATE    -453.816      ET-4
 BOUNDARY     15   LAYER   1   ROW     5   COL    12   RATE    -419.666      ET-5
 BOUNDARY     16   LAYER   1   ROW     6   COL    12   RATE    -418.796      ET-6
 BOUNDARY     17   LAYER   1   ROW     7   COL    12   RATE    -314.216      ET-7
 BOUNDARY     18   LAYER   1   ROW     8   COL    12   RATE    -243.398      ET-8
 BOUNDARY     19   LAYER   1   ROW     9   COL    12   RATE    -176.239      ET-9
 BOUNDARY     20   LAYER   1   ROW    10   COL    12   RATE    -87.2324      ET-10
 UBDSV4 SAVING CONSTANT HEADS   ON UNIT   1017 AT TIME STEP      5, STRESS PERIOD      5

 CONSTANT HEADS     PERIOD  5   STEP  5
 BOUNDARY      1   LAYER   1   ROW     1   COL     1   RATE     2627.08      CHD-1
 BOUNDARY      2   LAYER   1   ROW     4   COL     1   RATE     4719.40    
 BOUNDARY      3   LAYER   1   ROW     5   COL     1   RATE     843.481      CHD_GP
 BOUNDARY      4   LAYER   1   ROW     6   COL     1   RATE     4306.33      CHD_GP
 BOUNDARY      5   LAYER   1   ROW    10   COL     1   RATE     1743.37      CHD-10

 HEAD WILL BE SAVED ON UNIT 1018 AT END OF TIME STEP    5, STRESS PERIOD    5
WEL   no.    1 value from time series:  -16200.     for time:  8.000     to  8.200    
WEL   no.    2 value from time series:  -30000.     for time:  8.000     to  8.200    
RIV   no.    1 value from time series:   102.30     for time:  8.000     to  8.200    
RIV   no.    2 value from time series:   102.30     for time:  8.000     to  8.200    
RIV   no.    3 value from time series:   102.30     for time:  8.000     to  8.200    
RIV   no.    4 value from time series:   102.30     for time:  8.000     to  8.200    
RIV   no.    5 value from time series:   102.30     for time:  8.000     to  8.200    
RIV   no.    6 value from time series:   102.30     for time:  8.000     to  8.200    
RIV   no.    7 value from time series:   102.30     for time:  8.000     to  8.200    
RIV   no.    8 value from time series:   102.30     for time:  8.000     to  8.200    
RIV   no.    9 value from time series:   102.30     for time:  8.000     to  8.200    
RIV   no.   10 value from time series:   102.30     for time:  8.000     to  8.200    
EVT   no.    1 value from time series:   1274.1     for time:  8.000     to  8.200    
EVT   no.    2 value from time series:   2548.1     for time:  8.000     to  8.200    
EVT   no.    3 value from time series:   3822.2     for time:  8.000     to  8.200    
EVT   no.    4 value from time series:   5096.3     for time:  8.000     to  8.200    
EVT   no.   10 value from time series:   637.03     for time:  8.000     to  8.200    
EVT   no.   11 value from time series:   1274.1     for time:  8.000     to  8.200    
EVT   no.   12 value from time series:   2548.1     for time:  8.000     to  8.200    
EVT   no.   13 value from time series:   3822.2     for time:  8.000     to  8.200    
EVT   no.   14 value from time series:   5096.3     for time:  8.000     to  8.200    
EVT   no.   20 value from time series:   637.03     for time:  8.000     to  8.200    
WEL   no.    1 value from time series:  -16200.     for time:  8.000     to  8.200    
WEL   no.    2 value from time series:  -30000.     for time:  8.000     to  8.200    
RIV   no.    1 value from time series:   102.30     for time:  8.000     to  8.200    
RIV   no.    2 value from time series:   102.30     for time:  8.000     to  8.200    
RIV   no.    3 value from time series:   102.30     for time:  8.000     to  8.200    
RIV   no.    4 value from time series:   102.30     for time:  8.000     to  8.200    
RIV   no.    5 value from time series:   102.30     for time:  8.000     to  8.200    
RIV   no.    6 value from time series:   102.30     for time:  8.000     to  8.200    
RIV   no.    7 value from time series:   102.30     for time:  8.000     to  8.200    
RIV   no.    8 value from time series:   102.30     for time:  8.000     to  8.200    
RIV   no.    9 value from time series:   102.30     for time:  8.000     to  8.200    
RIV   no.   10 value from time series:   102.30     for time:  8.000     to  8.200    
EVT   no.    1 value from time series:   1274.1     for time:  8.000     to  8.200    
EVT   no.    2 value from time series:   2548.1     for time:  8.000     to  8.200    
EVT   no.    3 value from time series:   3822.2     for time:  8.000     to  8.200    
EVT   no.    4 value from time series:   5096.3     for time:  8.000     to  8.200    
EVT   no.   10 value from time series:   637.03     for time:  8.000     to  8.200    
EVT   no.   11 value from time series:   1274.1     for time:  8.000     to  8.200    
EVT   no.   12 value from time series:   2548.1     for time:  8.000     to  8.200    
EVT   no.   13 value from time series:   3822.2     for time:  8.000     to  8.200    
EVT   no.   14 value from time series:   5096.3     for time:  8.000     to  8.200    
EVT   no.   20 value from time series:   637.03     for time:  8.000     to  8.200    

 OUTPUT CONTROL FOR STRESS PERIOD    5   TIME STEP    6
    SAVE BUDGET
    SAVE HEAD
    SAVE HEAD FOR ALL LAYERS
 UBDSV1 SAVING      STORAGE(SS) ON UNIT   1017 AT TIME STEP      6, STRESS PERIOD      5
 UBDSV1 SAVING      STORAGE(SY) ON UNIT   1017 AT TIME STEP      6, STRESS PERIOD      5
 UBDSV1 SAVING FLOW RIGHT FACE  ON UNIT   1017 AT TIME STEP      6, STRESS PERIOD      5
 UBDSV1 SAVING FLOW FRONT FACE  ON UNIT   1017 AT TIME STEP      6, STRESS PERIOD      5
 UBDSV1 SAVING FLOW LOWER FACE  ON UNIT   1017 AT TIME STEP      6, STRESS PERIOD      5
 UBDSV4 SAVING WELLS NEAR RIVER ON UNIT   1017 AT TIME STEP      6, STRESS PERIOD      5

 WELLS NEAR RIVER   PERIOD  5   STEP  6
 BOUNDARY      1   LAYER   2   ROW     8   COL     4   RATE    -16200.0      WELL_2
 BOUNDARY      2   LAYER   2   ROW     3   COL     4   RATE    -30000.0      WELL_1
 UBDSV4 SAVING RIVER            ON UNIT   1017 AT TIME STEP      6, STRESS PERIOD      5

 RIVER              PERIOD  5   STEP  6
 BOUNDARY      1   LAYER   1   ROW     1   COL    15   RATE    -6184.17    
 BOUNDARY      2   LAYER   1   ROW     2   COL    15   RATE    -6166.53      RIV2
 BOUNDARY      3   LAYER   1   ROW     3   COL    15   RATE    -6140.09      RIV3
 BOUNDARY      4   LAYER   1   ROW     4   COL    15   RATE    -6112.54    
 BOUNDARY      5   LAYER   1   ROW     5   COL    15   RATE    -6091.16    
 BOUNDARY      6   LAYER   1   ROW     6   COL    15   RATE    -6090.51    
 BOUNDARY      7   LAYER   1   ROW     7   COL    15   RATE    -6111.05      RIVX
 BOUNDARY      8   LAYER   1   ROW     8   COL    15   RATE    -6141.55      RIVX
 BOUNDARY      9   LAYER   1   ROW     9   COL    15   RATE    -6173.45      RIVX
 BOUNDARY     10   LAYER   1   ROW    10   COL    15   RATE    -6196.24    

 GHB LAKES          PERIOD  5   STEP  6
 BOUNDARY      1   LAYER   1   ROW     3   COL     1   RATE    -7999.24    
 BOUNDARY      2   LAYER   1   ROW     7   COL     1   RATE     4255.71      GHB2_UPPER
 BOUNDARY      3   LAYER   1   ROW     7   COL     1   RATE    -11049.3      GHB2_LOWER
 UBDSV4 SAVING RECHARGE         ON UNIT   1017 AT TIME STEP      6, STRESS PERIOD      5

 RECHARGE           PERIOD  5   STEP  6
 BOUNDARY      2   LAYER   1   ROW     1   COL     2   RATE     750.000    
 BOUNDARY      3   LAYER   1   ROW     1   COL     3   RATE     750.000    
 BOUNDARY      4   LAYER   1   ROW     1   COL     4   RATE     750.000    
 BOUNDARY      5   LAYER   1   ROW     1   COL     5   RATE     750.000    
 BOUNDARY      6   LAYER   1   ROW     1   COL     6   RATE     750.000    
 BOUNDARY      7   LAYER   1   ROW     1   COL     7   RATE     750.000    
 BOUNDARY      8   LAYER   1   ROW     1   COL     8   RATE     750.000    
 BOUNDARY      9   LAYER   1   ROW     1   COL     9   RATE     750.000    
 BOUNDARY     10   LAYER   1   ROW     1   COL    10   RATE     750.000    
 BOUNDARY     11   LAYER   1   ROW     1   COL    11   RATE     750.000    
 BOUNDARY     12   LAYER   1   ROW     1   COL    12   RATE     750.000    
 BOUNDARY     13   LAYER   1   ROW     1   COL    13   RATE     750.000    
 BOUNDARY     14   LAYER   1   ROW     1   COL    14   RATE     750.000    
 BOUNDARY     15   LAYER   1   ROW     1   COL    15   RATE     750.000    
 BOUNDARY     16   LAYER   1   ROW     2   COL     1   RATE     750.000    
 BOUNDARY     17   LAYER   1   ROW     2   COL     2   RATE     750.000    
 BOUNDARY     18   LAYER   1   ROW     2   COL     3   RATE     750.000    
 BOUNDARY     19   LAYER   1   ROW     2   COL     4   RATE     750.000    
 BOUNDARY     20   LAYER   1   ROW     2   COL     5   RATE     750.000    
 BOUNDARY     21   LAYER   1   ROW     2   COL     6   RATE     750.000    
 BOUNDARY     22   LAYER   1   ROW     2   COL     7   RATE     750.000    
 BOUNDARY     23   LAYER   1   ROW     2   COL     8   RATE     750.000    
 BOUNDARY     24   LAYER   1   ROW     2   COL     9   RATE     750.000    
 BOUNDARY     25   LAYER   1   ROW     2   COL    10   RATE     750.000    
 BOUNDARY     26   LAYER   1   ROW     2   COL    11   RATE     750.000    
 BOUNDARY     27   LAYER   1   ROW     2   COL    12   RATE     750.000    
 BOUNDARY     28   LAYER   1   ROW     2   COL    13   RATE     750.000    
 BOUNDARY     29   LAYER   1   ROW     2   COL    14   RATE     750.000    
 BOUNDARY     30   LAYER   1   ROW     2   COL    15   RATE     750.000    
 BOUNDARY     31   LAYER   1   ROW     3   COL     1   RATE     750.000    
 BOUNDARY     32   LAYER   1   ROW     3   COL     2   RATE     750.000    
 BOUNDARY     33   LAYER   1   ROW     3   COL     3   RATE     750.000    
 BOUNDARY     34   LAYER   1   ROW     3   COL     4   RATE     750.000    
 BOUNDARY     35   LAYER   1   ROW     3   COL     5   RATE     750.000    
 BOUNDARY     36   LAYER   1   ROW     3   COL     6   RATE     750.000    
 BOUNDARY     37   LAYER   1   ROW     3   COL     7   RATE     750.000    
 BOUNDARY     38   LAYER   1   ROW     3   COL     8   RATE     750.000    
 BOUNDARY     39   LAYER   1   ROW     3   COL     9   RATE     750.000    
 BOUNDARY     40   LAYER   1   ROW     3   COL    10   RATE     750.000    
 BOUNDARY     41   LAYER   1   ROW     3   COL    11   RATE     750.000    
 BOUNDARY     42   LAYER   1   ROW     3   COL    12   RATE     750.000    
 BOUNDARY     43   LAYER   1   ROW     3   COL    13   RATE     750.000    
 BOUNDARY     44   LAYER   1   ROW     3   COL    14   RATE     750.000    
 BOUNDARY     45   LAYER   1   ROW     3   COL    15   RATE     750.000    
 BOUNDARY     47   LAYER   1   ROW     4   COL     2   RATE     750.000    
 BOUNDARY     48   LAYER   1   ROW     4   COL     3   RATE     750.000    
 BOUNDARY     49   LAYER   1   ROW     4   COL     4   RATE     750.000    
 BOUNDARY     50   LAYER   1   ROW     4   COL     5   RATE     750.000    
 BOUNDARY     51   LAYER   1   ROW     4   COL     6   RATE     750.000    
 BOUNDARY     52   LAYER   1   ROW     4   COL     7   RATE     750.000    
 BOUNDARY     53   LAYER   1   ROW     4   COL     8   RATE     750.000    
 BOUNDARY     54   LAYER   1   ROW     4   COL     9   RATE     750.000    
 BOUNDARY     55   LAYER   1   ROW     4   COL    10   RATE     750.000    
 BOUNDARY     56   LAYER   1   ROW     4   COL    11   RATE     750.000    
 BOUNDARY     57   LAYER   1   ROW     4   COL    12   RATE     750.000    
 BOUNDARY     58   LAYER   1   ROW     4   COL    13   RATE     750.000    
 BOUNDARY     59   LAYER   1   ROW     4   COL    14   RATE     750.000    
 BOUNDARY     60   LAYER   1   ROW     4   COL    15   RATE     750.000    
 BOUNDARY     62   LAYER   1   ROW     5   COL     2   RATE     750.000    
 BOUNDARY     63   LAYER   1   ROW     5   COL     3   RATE     750.000    
 BOUNDARY     64   LAYER   1   ROW     5   COL     4   RATE     750.000    
 BOUNDARY     65   LAYER   1   ROW     5   COL     5   RATE     750.000    
 BOUNDARY     66   LAYER   1   ROW     5   COL     6   RATE     750.000    
 BOUNDARY     67   LAYER   1   ROW     5   COL     7   RATE     750.000    
 BOUNDARY     68   LAYER   1   ROW     5   COL     8   RATE     750.000    
 BOUNDARY     69   LAYER   1   ROW     5   COL     9   RATE     750.000    
 BOUNDARY     70   LAYER   1   ROW     5   COL    10   RATE     750.000    
 BOUNDARY     71   LAYER   1   ROW     5   COL    11   RATE     750.000    
 BOUNDARY     72   LAYER   1   ROW     5   COL    12   RATE     750.000    
 BOUNDARY     73   LAYER   1   ROW     5   COL    13   RATE     750.000    
 BOUNDARY     74   LAYER   1   ROW     5   COL    14   RATE     750.000    
 BOUNDARY     75   LAYER   1   ROW     5   COL    15   RATE     750.000    
 BOUNDARY     77   LAYER   1   ROW     6   COL     2   RATE     750.000    
 BOUNDARY     78   LAYER   1   ROW     6   COL     3   RATE     750.000    
 BOUNDARY     79   LAYER   1   ROW     6   COL     4   RATE     750.000    
 BOUNDARY     80   LAYER   1   ROW     6   COL     5   RATE     750.000    
 BOUNDARY     81   LAYER   1   ROW     6   COL     6   RATE     750.000    
 BOUNDARY     82   LAYER   1   ROW     6   COL     7   RATE     750.000    
 BOUNDARY     83   LAYER   1   ROW     6   COL     8   RATE     750.000    
 BOUNDARY     84   LAYER   1   ROW     6   COL     9   RATE     750.000    
 BOUNDARY     85   LAYER   1   ROW     6   COL    10   RATE     750.000    
 BOUNDARY     86   LAYER   1   ROW     6   COL    11   RATE     750.000    
 BOUNDARY     87   LAYER   1   ROW     6   COL    12   RATE     750.000    
 BOUNDARY     88   LAYER   1   ROW     6   COL    13   RATE     750.000    
 BOUNDARY     89   LAYER   1   ROW     6   COL    14   RATE     750.000    
 BOUNDARY     90   LAYER   1   ROW     6   COL    15   RATE     750.000    
 BOUNDARY     91   LAYER   1   ROW     7   COL     1   RATE     750.000    
 BOUNDARY     92   LAYER   1   ROW     7   COL     2   RATE     750.000    
 BOUNDARY     93   LAYER   1   ROW     7   COL     3   RATE     750.000    
 BOUNDARY     94   LAYER   1   ROW     7   COL     4   RATE     750.000    
 BOUNDARY     95   LAYER   1   ROW     7   COL     5   RATE     750.000    
 BOUNDARY     96   LAYER   1   ROW     7   COL     6   RATE     750.000    
 BOUNDARY     97   LAYER   1   ROW     7   COL     7   RATE     750.000    
 BOUNDARY     98   LAYER   1   ROW     7   COL     8   RATE     750.000    
 BOUNDARY     99   LAYER   1   ROW     7   COL     9   RATE     750.000    
 BOUNDARY    100   LAYER   1   ROW     7   COL    10   RATE     750.000    
 BOUNDARY    101   LAYER   1   ROW     7   COL    11   RATE     750.000    
 BOUNDARY    102   LAYER   1   ROW     7   COL    12   RATE     750.000    
 BOUNDARY    103   LAYER   1   ROW     7   COL    13   RATE     750.000    
 BOUNDARY    104   LAYER   1   ROW     7   COL    14   RATE     750.000    
 BOUNDARY    105   LAYER   1   ROW     7   COL    15   RATE     750.000    
 BOUNDARY    106   LAYER   1   ROW     8   COL     1   RATE     750.000    
 BOUNDARY    107   LAYER   1   ROW     8   COL     2   RATE     750.000    
 BOUNDARY    108   LAYER   1   ROW     8   COL     3   RATE     750.000    
 BOUNDARY    109   LAYER   1   ROW     8   COL     4   RATE     750.000    
 BOUNDARY    110   LAYER   1   ROW     8   COL     5   RATE     750.000    
 BOUNDARY    111   LAYER   1   ROW     8   COL     6   RATE     750.000    
 BOUNDARY    112   LAYER   1   ROW     8   COL     7   RATE     750.000    
 BOUNDARY    113   LAYER   1   ROW     8   COL     8   RATE     750.000    
 BOUNDARY    114   LAYER   1   ROW     8   COL     9   RATE     750.000    
 BOUNDARY    115   LAYER   1   ROW     8   COL    10   RATE     750.000    
 BOUNDARY    116   LAYER   1   ROW     8   COL    11   RATE     750.000    
 BOUNDARY    117   LAYER   1   ROW     8   COL    12   RATE     750.000    
 BOUNDARY    118   LAYER   1   ROW     8   COL    13   RATE     750.000    
 BOUNDARY    119   LAYER   1   ROW     8   COL    14   RATE     750.000    
 BOUNDARY    120   LAYER   1   ROW     8   COL    15   RATE     750.000    
 BOUNDARY    121   LAYER   1   ROW     9   COL     1   RATE     750.000    
 BOUNDARY    122   LAYER   1   ROW     9   COL     2   RATE     750.000    
 BOUNDARY    123   LAYER   1   ROW     9   COL     3   RATE     750.000    
 BOUNDARY    124   LAYER   1   ROW     9   COL     4   RATE     750.000    
 BOUNDARY    125   LAYER   1   ROW     9   COL     5   RATE     750.000    
 BOUNDARY    126   LAYER   1   ROW     9   COL     6   RATE     750.000    
 BOUNDARY    127   LAYER   1   ROW     9   COL     7   RATE     750.000    
 BOUNDARY    128   LAYER   1   ROW     9   COL     8   RATE     750.000    
 BOUNDARY    129   LAYER   1   ROW     9   COL     9   RATE     750.000    
 BOUNDARY    130   LAYER   1   ROW     9   COL    10   RATE     750.000    
 BOUNDARY    131   LAYER   1   ROW     9   COL    11   RATE     750.000    
 BOUNDARY    132   LAYER   1   ROW     9   COL    12   RATE     750.000    
 BOUNDARY    133   LAYER   1   ROW     9   COL    13   RATE     750.000    
 BOUNDARY    134   LAYER   1   ROW     9   COL    14   RATE     750.000    
 BOUNDARY    135   LAYER   1   ROW     9   COL    15   RATE     750.000    
 BOUNDARY    137   LAYER   1   ROW    10   COL     2   RATE     750.000    
 BOUNDARY    138   LAYER   1   ROW    10   COL     3   RATE     750.000    
 BOUNDARY    139   LAYER   1   ROW    10   COL     4   RATE     750.000    
 BOUNDARY    140   LAYER   1   ROW    10   COL     5   RATE     750.000    
 BOUNDARY    141   LAYER   1   ROW    10   COL     6   RATE     750.000    
 BOUNDARY    142   LAYER   1   ROW    10   COL     7   RATE     750.000    
 BOUNDARY    143   LAYER   1   ROW    10   COL     8   RATE     750.000    
 BOUNDARY    144   LAYER   1   ROW    10   COL     9   RATE     750.000    
 BOUNDARY    145   LAYER   1   ROW    10   COL    10   RATE     750.000    
 BOUNDARY    146   LAYER   1   ROW    10   COL    11   RATE     750.000    
 BOUNDARY    147   LAYER   1   ROW    10   COL    12   RATE     750.000    
 BOUNDARY    148   LAYER   1   ROW    10   COL    13   RATE     750.000    
 BOUNDARY    149   LAYER   1   ROW    10   COL    14   RATE     750.000    
 BOUNDARY    150   LAYER   1   ROW    10   COL    15   RATE     750.000    
 UBDSV4 SAVING ET SEGS          ON UNIT   1017 AT TIME STEP      6, STRESS PERIOD      5

 ET SEGS            PERIOD  5   STEP  6
 BOUNDARY      1   LAYER   1   ROW     1   COL    13   RATE    -101.813      ET-1
 BOUNDARY      2   LAYER   1   ROW     2   COL    13   RATE    -192.729      ET-2
 BOUNDARY      3   LAYER   1   ROW     3   COL    13   RATE    -266.986      ET-3
 BOUNDARY      4   LAYER   1   ROW     4   COL    13   RATE    -325.647      ET-4
 BOUNDARY      5   LAYER   1   ROW     5   COL    13   RATE    -292.727      ET-5
 BOUNDARY      6   LAYER   1   ROW     6   COL    13   RATE    -291.884      ET-6
 BOUNDARY      7   LAYER   1   ROW     7   COL    13   RATE    -222.085      ET-7
 BOUNDARY      8   LAYER   1   ROW     8   COL    13   RATE    -175.134      ET-8
 BOUNDARY      9   LAYER   1   ROW     9   COL    13   RATE    -115.623      ET-9
 BOUNDARY     10   LAYER   1   ROW    10   COL    13   RATE    -52.6823      ET-10
 BOUNDARY     11   LAYER   1   ROW     1   COL    12   RATE    -163.234      ET-1
 BOUNDARY     12   LAYER   1   ROW     2   COL    12   RATE    -285.977      ET-2
 BOUNDARY     13   LAYER   1   ROW     3   COL    12   RATE    -371.328      ET-3
 BOUNDARY     14   LAYER   1   ROW     4   COL    12   RATE    -460.336      ET-4
 BOUNDARY     15   LAYER   1   ROW     5   COL    12   RATE    -420.209      ET-5
 BOUNDARY     16   LAYER   1   ROW     6   COL    12   RATE    -419.342      ET-6
 BOUNDARY     17   LAYER   1   ROW     7   COL    12   RATE    -314.601      ET-7
 BOUNDARY     18   LAYER   1   ROW     8   COL    12   RATE    -243.675      ET-8
 BOUNDARY     19   LAYER   1   ROW     9   COL    12   RATE    -176.785      ET-9
 BOUNDARY     20   LAYER   1   ROW    10   COL    12   RATE    -88.6287      ET-10
 UBDSV4 SAVING CONSTANT HEADS   ON UNIT   1017 AT TIME STEP      6, STRESS PERIOD      5

 CONSTANT HEADS     PERIOD  5   STEP  6
 BOUNDARY      1   LAYER   1   ROW     1   COL     1   RATE     2626.88      CHD-1
 BOUNDARY      2   LAYER   1   ROW     4   COL     1   RATE     4719.75    
 BOUNDARY      3   LAYER   1   ROW     5   COL     1   RATE     844.335      CHD_GP
 BOUNDARY      4   LAYER   1   ROW     6   COL     1   RATE     4306.86      CHD_GP
 BOUNDARY      5   LAYER   1   ROW    10   COL     1   RATE     1743.11      CHD-10

 HEAD WILL BE SAVED ON UNIT 1018 AT END OF TIME STEP    6, STRESS PERIOD    5
WEL   no.    1 value from time series:  -16600.     for time:  8.200     to  8.400    
WEL   no.    2 value from time series:  -30000.     for time:  8.200     to  8.400    
RIV   no.    1 value from time series:   102.23     for time:  8.200     to  8.400    
RIV   no.    2 value from time series:   102.23     for time:  8.200     to  8.400    
RIV   no.    3 value from time series:   102.23     for time:  8.200     to  8.400    
RIV   no.    4 value from time series:   102.23     for time:  8.200     to  8.400    
RIV   no.    5 value from time series:   102.23     for time:  8.200     to  8.400    
RIV   no.    6 value from time series:   102.23     for time:  8.200     to  8.400    
RIV   no.    7 value from time series:   102.23     for time:  8.200     to  8.400    
RIV   no.    8 value from time series:   102.23     for time:  8.200     to  8.400    
RIV   no.    9 value from time series:   102.23     for time:  8.200     to  8.400    
RIV   no.   10 value from time series:   102.23     for time:  8.200     to  8.400    
EVT   no.    1 value from time series:   1290.9     for time:  8.200     to  8.400    
EVT   no.    2 value from time series:   2581.9     for time:  8.200     to  8.400    
EVT   no.    3 value from time series:   3872.8     for time:  8.200     to  8.400    
EVT   no.    4 value from time series:   5163.8     for time:  8.200     to  8.400    
EVT   no.   10 value from time series:   645.47     for time:  8.200     to  8.400    
EVT   no.   11 value from time series:   1290.9     for time:  8.200     to  8.400    
EVT   no.   12 value from time series:   2581.9     for time:  8.200     to  8.400    
EVT   no.   13 value from time series:   3872.8     for time:  8.200     to  8.400    
EVT   no.   14 value from time series:   5163.8     for time:  8.200     to  8.400    
EVT   no.   20 value from time series:   645.47     for time:  8.200     to  8.400    
WEL   no.    1 value from time series:  -16600.     for time:  8.200     to  8.400    
WEL   no.    2 value from time series:  -30000.     for time:  8.200     to  8.400    
RIV   no.    1 value from time series:   102.23     for time:  8.200     to  8.400    
RIV   no.    2 value from time series:   102.23     for time:  8.200     to  8.400    
RIV   no.    3 value from time series:   102.23     for time:  8.200     to  8.400    
RIV   no.    4 value from time series:   102.23     for time:  8.200     to  8.400    
RIV   no.    5 value from time series:   102.23     for time:  8.200     to  8.400    
RIV   no.    6 value from time series:   102.23     for time:  8.200     to  8.400    
RIV   no.    7 value from time series:   102.23     for time:  8.200     to  8.400    
RIV   no.    8 value from time series:   102.23     for time:  8.200     to  8.400    
RIV   no.    9 value from time series:   102.23     for time:  8.200     to  8.400    
RIV   no.   10 value from time series:   102.23     for time:  8.200     to  8.400    
EVT   no.    1 value from time series:   1290.9     for time:  8.200     to  8.400    
EVT   no.    2 value from time series:   2581.9     for time:  8.200     to  8.400    
EVT   no.    3 value from time series:   3872.8     for time:  8.200     to  8.400    
EVT   no.    4 value from time series:   5163.8     for time:  8.200     to  8.400    
EVT   no.   10 value from time series:   645.47     for time:  8.200     to  8.400    
EVT   no.   11 value from time series:   1290.9     for time:  8.200     to  8.400    
EVT   no.   12 value from time series:   2581.9     for time:  8.200     to  8.400    
EVT   no.   13 value from time series:   3872.8     for time:  8.200     to  8.400    
EVT   no.   14 value from time series:   5163.8     for time:  8.200     to  8.400    
EVT   no.   20 value from time series:   645.47     for time:  8.200     to  8.400    

 OUTPUT CONTROL FOR STRESS PERIOD    5   TIME STEP    7
    SAVE BUDGET
    SAVE HEAD
    SAVE HEAD FOR ALL LAYERS
 UBDSV1 SAVING      STORAGE(SS) ON UNIT   1017 AT TIME STEP      7, STRESS PERIOD      5
 UBDSV1 SAVING      STORAGE(SY) ON UNIT   1017 AT TIME STEP      7, STRESS PERIOD      5
 UBDSV1 SAVING FLOW RIGHT FACE  ON UNIT   1017 AT TIME STEP      7, STRESS PERIOD      5
 UBDSV1 SAVING FLOW FRONT FACE  ON UNIT   1017 AT TIME STEP      7, STRESS PERIOD      5
 UBDSV1 SAVING FLOW LOWER FACE  ON UNIT   1017 AT TIME STEP      7, STRESS PERIOD      5
 UBDSV4 SAVING WELLS NEAR RIVER ON UNIT   1017 AT TIME STEP      7, STRESS PERIOD      5

 WELLS NEAR RIVER   PERIOD  5   STEP  7
 BOUNDARY      1   LAYER   2   ROW     8   COL     4   RATE    -16600.0      WELL_2
 BOUNDARY      2   LAYER   2   ROW     3   COL     4   RATE    -30000.0      WELL_1
 UBDSV4 SAVING RIVER            ON UNIT   1017 AT TIME STEP      7, STRESS PERIOD      5

 RIVER              PERIOD  5   STEP  7
 BOUNDARY      1   LAYER   1   ROW     1   COL    15   RATE    -6391.05    
 BOUNDARY      2   LAYER   1   ROW     2   COL    15   RATE    -6373.40      RIV2
 BOUNDARY      3   LAYER   1   ROW     3   COL    15   RATE    -6346.93      RIV3
 BOUNDARY      4   LAYER   1   ROW     4   COL    15   RATE    -6319.36    
 BOUNDARY      5   LAYER   1   ROW     5   COL    15   RATE    -6297.95    
 BOUNDARY      6   LAYER   1   ROW     6   COL    15   RATE    -6297.31    
 BOUNDARY      7   LAYER   1   ROW     7   COL    15   RATE    -6317.87      RIVX
 BOUNDARY      8   LAYER   1   ROW     8   COL    15   RATE    -6348.40      RIVX
 BOUNDARY      9   LAYER   1   ROW     9   COL    15   RATE    -6380.33      RIVX
 BOUNDARY     10   LAYER   1   ROW    10   COL    15   RATE    -6403.13    

 GHB LAKES          PERIOD  5   STEP  7
 BOUNDARY      1   LAYER   1   ROW     3   COL     1   RATE    -8003.47    
 BOUNDARY      2   LAYER   1   ROW     7   COL     1   RATE     4252.10      GHB2_UPPER
 BOUNDARY      3   LAYER   1   ROW     7   COL     1   RATE    -11050.5      GHB2_LOWER
 UBDSV4 SAVING RECHARGE         ON UNIT   1017 AT TIME STEP      7, STRESS PERIOD      5

 RECHARGE           PERIOD  5   STEP  7
 BOUNDARY      2   LAYER   1   ROW     1   COL     2   RATE     750.000    
 BOUNDARY      3   LAYER   1   ROW     1   COL     3   RATE     750.000    
 BOUNDARY      4   LAYER   1   ROW     1   COL     4   RATE     750.000    
 BOUNDARY      5   LAYER   1   ROW     1   COL     5   RATE     750.000    
 BOUNDARY      6   LAYER   1   ROW     1   COL     6   RATE     750.000    
 BOUNDARY      7   LAYER   1   ROW     1   COL     7   RATE     750.000    
 BOUNDARY      8   LAYER   1   ROW     1   COL     8   RATE     750.000    
 BOUNDARY      9   LAYER   1   ROW     1   COL     9   RATE     750.000    
 BOUNDARY     10   LAYER   1   ROW     1   COL    10   RATE     750.000    
 BOUNDARY     11   LAYER   1   ROW     1   COL    11   RATE     750.000    
 BOUNDARY     12   LAYER   1   ROW     1   COL    12   RATE     750.000    
 BOUNDARY     13   LAYER   1   ROW     1   COL    13   RATE     750.000    
 BOUNDARY     14   LAYER   1   ROW     1   COL    14   RATE     750.000    
 BOUNDARY     15   LAYER   1   ROW     1   COL    15   RATE     750.000    
 BOUNDARY     16   LAYER   1   ROW     2   COL     1   RATE     750.000    
 BOUNDARY     17   LAYER   1   ROW     2   COL     2   RATE     750.000    
 BOUNDARY     18   LAYER   1   ROW     2   COL     3   RATE     750.000    
 BOUNDARY     19   LAYER   1   ROW     2   COL     4   RATE     750.000    
 BOUNDARY     20   LAYER   1   ROW     2   COL     5   RATE     750.000    
 BOUNDARY     21   LAYER   1   ROW     2   COL     6   RATE     750.000    
 BOUNDARY     22   LAYER   1   ROW     2   COL     7   RATE     750.000    
 BOUNDARY     23   LAYER   1   ROW     2   COL     8   RATE     750.000    
 BOUNDARY     24   LAYER   1   ROW     2   COL     9   RATE     750.000    
 BOUNDARY     25   LAYER   1   ROW     2   COL    10   RATE     750.000    
 BOUNDARY     26   LAYER   1   ROW     2   COL    11   RATE     750.000    
 BOUNDARY     27   LAYER   1   ROW     2   COL    12   RATE     750.000    
 BOUNDARY     28   LAYER   1   ROW     2   COL    13   RATE     750.000    
 BOUNDARY     29   LAYER   1   ROW     2   COL    14   RATE     750.000    
 BOUNDARY     30   LAYER   1   ROW     2   COL    15   RATE     750.000    
 BOUNDARY     31   LAYER   1   ROW     3   COL     1   RATE     750.000    
 BOUNDARY     32   LAYER   1   ROW     3   COL     2   RATE     750.000    
 BOUNDARY     33   LAYER   1   ROW     3   COL     3   RATE     750.000    
 BOUNDARY     34   LAYER   1   ROW     3   COL     4   RATE     750.000    
 BOUNDARY     35   LAYER   1   ROW     3   COL     5   RATE     750.000    
 BOUNDARY     36   LAYER   1   ROW     3   COL     6   RATE     750.000    
 BOUNDARY     37   LAYER   1   ROW     3   COL     7   RATE     750.000    
 BOUNDARY     38   LAYER   1   ROW     3   COL     8   RATE     750.000    
 BOUNDARY     39   LAYER   1   ROW     3   COL     9   RATE     750.000    
 BOUNDARY     40   LAYER   1   ROW     3   COL    10   RATE     750.000    
 BOUNDARY     41   LAYER   1   ROW     3   COL    11   RATE     750.000    
 BOUNDARY     42   LAYER   1   ROW     3   COL    12   RATE     750.000    
 BOUNDARY     43   LAYER   1   ROW     3   COL    13   RATE     750.000    
 BOUNDARY     44   LAYER   1   ROW     3   COL    14   RATE     750.000    
 BOUNDARY     45   LAYER   1   ROW     3   COL    15   RATE     750.000    
 BOUNDARY     47   LAYER   1   ROW     4   COL     2   RATE     750.000    
 BOUNDARY     48   LAYER   1   ROW     4   COL     3   RATE     750.000    
 BOUNDARY     49   LAYER   1   ROW     4   COL     4   RATE     750.000    
 BOUNDARY     50   LAYER   1   ROW     4   COL     5   RATE     750.000    
 BOUNDARY     51   LAYER   1   ROW     4   COL     6   RATE     750.000    
 BOUNDARY     52   LAYER   1   ROW     4   COL     7   RATE     750.000    
 BOUNDARY     53   LAYER   1   ROW     4   COL     8   RATE     750.000    
 BOUNDARY     54   LAYER   1   ROW     4   COL     9   RATE     750.000    
 BOUNDARY     55   LAYER   1   ROW     4   COL    10   RATE     750.000    
 BOUNDARY     56   LAYER   1   ROW     4   COL    11   RATE     750.000    
 BOUNDARY     57   LAYER   1   ROW     4   COL    12   RATE     750.000    
 BOUNDARY     58   LAYER   1   ROW     4   COL    13   RATE     750.000    
 BOUNDARY     59   LAYER   1   ROW     4   COL    14   RATE     750.000    
 BOUNDARY     60   LAYER   1   ROW     4   COL    15   RATE     750.000    
 BOUNDARY     62   LAYER   1   ROW     5   COL     2   RATE     750.000    
 BOUNDARY     63   LAYER   1   ROW     5   COL     3   RATE     750.000    
 BOUNDARY     64   LAYER   1   ROW     5   COL     4   RATE     750.000    
 BOUNDARY     65   LAYER   1   ROW     5   COL     5   RATE     750.000    
 BOUNDARY     66   LAYER   1   ROW     5   COL     6   RATE     750.000    
 BOUNDARY     67   LAYER   1   ROW     5   COL     7   RATE     750.000    
 BOUNDARY     68   LAYER   1   ROW     5   COL     8   RATE     750.000    
 BOUNDARY     69   LAYER   1   ROW     5   COL     9   RATE     750.000    
 BOUNDARY     70   LAYER   1   ROW     5   COL    10   RATE     750.000    
 BOUNDARY     71   LAYER   1   ROW     5   COL    11   RATE     750.000    
 BOUNDARY     72   LAYER   1   ROW     5   COL    12   RATE     750.000    
 BOUNDARY     73   LAYER   1   ROW     5   COL    13   RATE     750.000    
 BOUNDARY     74   LAYER   1   ROW     5   COL    14   RATE     750.000    
 BOUNDARY     75   LAYER   1   ROW     5   COL    15   RATE     750.000    
 BOUNDARY     77   LAYER   1   ROW     6   COL     2   RATE     750.000    
 BOUNDARY     78   LAYER   1   ROW     6   COL     3   RATE     750.000    
 BOUNDARY     79   LAYER   1   ROW     6   COL     4   RATE     750.000    
 BOUNDARY     80   LAYER   1   ROW     6   COL     5   RATE     750.000    
 BOUNDARY     81   LAYER   1   ROW     6   COL     6   RATE     750.000    
 BOUNDARY     82   LAYER   1   ROW     6   COL     7   RATE     750.000    
 BOUNDARY     83   LAYER   1   ROW     6   COL     8   RATE     750.000    
 BOUNDARY     84   LAYER   1   ROW     6   COL     9   RATE     750.000    
 BOUNDARY     85   LAYER   1   ROW     6   COL    10   RATE     750.000    
 BOUNDARY     86   LAYER   1   ROW     6   COL    11   RATE     750.000    
 BOUNDARY     87   LAYER   1   ROW     6   COL    12   RATE     750.000    
 BOUNDARY     88   LAYER   1   ROW     6   COL    13   RATE     750.000    
 BOUNDARY     89   LAYER   1   ROW     6   COL    14   RATE     750.000    
 BOUNDARY     90   LAYER   1   ROW     6   COL    15   RATE     750.000    
 BOUNDARY     91   LAYER   1   ROW     7   COL     1   RATE     750.000    
 BOUNDARY     92   LAYER   1   ROW     7   COL     2   RATE     750.000    
 BOUNDARY     93   LAYER   1   ROW     7   COL     3   RATE     750.000    
 BOUNDARY     94   LAYER   1   ROW     7   COL     4   RATE     750.000    
 BOUNDARY     95   LAYER   1   ROW     7   COL     5   RATE     750.000    
 BOUNDARY     96   LAYER   1   ROW     7   COL     6   RATE     750.000    
 BOUNDARY     97   LAYER   1   ROW     7   COL     7   RATE     750.000    
 BOUNDARY     98   LAYER   1   ROW     7   COL     8   RATE     750.000    
 BOUNDARY     99   LAYER   1   ROW     7   COL     9   RATE     750.000    
 BOUNDARY    100   LAYER   1   ROW     7   COL    10   RATE     750.000    
 BOUNDARY    101   LAYER   1   ROW     7   COL    11   RATE     750.000    
 BOUNDARY    102   LAYER   1   ROW     7   COL    12   RATE     750.000    
 BOUNDARY    103   LAYER   1   ROW     7   COL    13   RATE     750.000    
 BOUNDARY    104   LAYER   1   ROW     7   COL    14   RATE     750.000    
 BOUNDARY    105   LAYER   1   ROW     7   COL    15   RATE     750.000    
 BOUNDARY    106   LAYER   1   ROW     8   COL     1   RATE     750.000    
 BOUNDARY    107   LAYER   1   ROW     8   COL     2   RATE     750.000    
 BOUNDARY    108   LAYER   1   ROW     8   COL     3   RATE     750.000    
 BOUNDARY    109   LAYER   1   ROW     8   COL     4   RATE     750.000    
 BOUNDARY    110   LAYER   1   ROW     8   COL     5   RATE     750.000    
 BOUNDARY    111   LAYER   1   ROW     8   COL     6   RATE     750.000    
 BOUNDARY    112   LAYER   1   ROW     8   COL     7   RATE     750.000    
 BOUNDARY    113   LAYER   1   ROW     8   COL     8   RATE     750.000    
 BOUNDARY    114   LAYER   1   ROW     8   COL     9   RATE     750.000    
 BOUNDARY    115   LAYER   1   ROW     8   COL    10   RATE     750.000    
 BOUNDARY    116   LAYER   1   ROW     8   COL    11   RATE     750.000    
 BOUNDARY    117   LAYER   1   ROW     8   COL    12   RATE     750.000    
 BOUNDARY    118   LAYER   1   ROW     8   COL    13   RATE     750.000    
 BOUNDARY    119   LAYER   1   ROW     8   COL    14   RATE     750.000    
 BOUNDARY    120   LAYER   1   ROW     8   COL    15   RATE     750.000    
 BOUNDARY    121   LAYER   1   ROW     9   COL     1   RATE     750.000    
 BOUNDARY    122   LAYER   1   ROW     9   COL     2   RATE     750.000    
 BOUNDARY    123   LAYER   1   ROW     9   COL     3   RATE     750.000    
 BOUNDARY    124   LAYER   1   ROW     9   COL     4   RATE     750.000    
 BOUNDARY    125   LAYER   1   ROW     9   COL     5   RATE     750.000    
 BOUNDARY    126   LAYER   1   ROW     9   COL     6   RATE     750.000    
 BOUNDARY    127   LAYER   1   ROW     9   COL     7   RATE     750.000    
 BOUNDARY    128   LAYER   1   ROW     9   COL     8   RATE     750.000    
 BOUNDARY    129   LAYER   1   ROW     9   COL     9   RATE     750.000    
 BOUNDARY    130   LAYER   1   ROW     9   COL    10   RATE     750.000    
 BOUNDARY    131   LAYER   1   ROW     9   COL    11   RATE     750.000    
 BOUNDARY    132   LAYER   1   ROW     9   COL    12   RATE     750.000    
 BOUNDARY    133   LAYER   1   ROW     9   COL    13   RATE     750.000    
 BOUNDARY    134   LAYER   1   ROW     9   COL    14   RATE     750.000    
 BOUNDARY    135   LAYER   1   ROW     9   COL    15   RATE     750.000    
 BOUNDARY    137   LAYER   1   ROW    10   COL     2   RATE     750.000    
 BOUNDARY    138   LAYER   1   ROW    10   COL     3   RATE     750.000    
 BOUNDARY    139   LAYER   1   ROW    10   COL     4   RATE     750.000    
 BOUNDARY    140   LAYER   1   ROW    10   COL     5   RATE     750.000    
 BOUNDARY    141   LAYER   1   ROW    10   COL     6   RATE     750.000    
 BOUNDARY    142   LAYER   1   ROW    10   COL     7   RATE     750.000    
 BOUNDARY    143   LAYER   1   ROW    10   COL     8   RATE     750.000    
 BOUNDARY    144   LAYER   1   ROW    10   COL     9   RATE     750.000    
 BOUNDARY    145   LAYER   1   ROW    10   COL    10   RATE     750.000    
 BOUNDARY    146   LAYER   1   ROW    10   COL    11   RATE     750.000    
 BOUNDARY    147   LAYER   1   ROW    10   COL    12   RATE     750.000    
 BOUNDARY    148   LAYER   1   ROW    10   COL    13   RATE     750.000    
 BOUNDARY    149   LAYER   1   ROW    10   COL    14   RATE     750.000    
 BOUNDARY    150   LAYER   1   ROW    10   COL    15   RATE     750.000    
 UBDSV4 SAVING ET SEGS          ON UNIT   1017 AT TIME STEP      7, STRESS PERIOD      5

 ET SEGS            PERIOD  5   STEP  7
 BOUNDARY      1   LAYER   1   ROW     1   COL    13   RATE    -103.301      ET-1
 BOUNDARY      2   LAYER   1   ROW     2   COL    13   RATE    -195.546      ET-2
 BOUNDARY      3   LAYER   1   ROW     3   COL    13   RATE    -270.900      ET-3
 BOUNDARY      4   LAYER   1   ROW     4   COL    13   RATE    -330.445      ET-4
 BOUNDARY      5   LAYER   1   ROW     5   COL    13   RATE    -293.287      ET-5
 BOUNDARY      6   LAYER   1   ROW     6   COL    13   RATE    -292.446      ET-6
 BOUNDARY      7   LAYER   1   ROW     7   COL    13   RATE    -222.482      ET-7
 BOUNDARY      8   LAYER   1   ROW     8   COL    13   RATE    -175.419      ET-8
 BOUNDARY      9   LAYER   1   ROW     9   COL    13   RATE    -115.794      ET-9
 BOUNDARY     10   LAYER   1   ROW    10   COL    13   RATE    -53.4523      ET-10
 BOUNDARY     11   LAYER   1   ROW     1   COL    12   RATE    -165.827      ET-1
 BOUNDARY     12   LAYER   1   ROW     2   COL    12   RATE    -290.555      ET-2
 BOUNDARY     13   LAYER   1   ROW     3   COL    12   RATE    -376.587      ET-3
 BOUNDARY     14   LAYER   1   ROW     4   COL    12   RATE    -466.861      ET-4
 BOUNDARY     15   LAYER   1   ROW     5   COL    12   RATE    -420.751      ET-5
 BOUNDARY     16   LAYER   1   ROW     6   COL    12   RATE    -419.888      ET-6
 BOUNDARY     17   LAYER   1   ROW     7   COL    12   RATE    -314.986      ET-7
 BOUNDARY     18   LAYER   1   ROW     8   COL    12   RATE    -243.951      ET-8
 BOUNDARY     19   LAYER   1   ROW     9   COL    12   RATE    -177.330      ET-9
 BOUNDARY     20   LAYER   1   ROW    10   COL    12   RATE    -90.0305      ET-10
 UBDSV4 SAVING CONSTANT HEADS   ON UNIT   1017 AT TIME STEP      7, STRESS PERIOD      5

 CONSTANT HEADS     PERIOD  5   STEP  7
 BOUNDARY      1   LAYER   1   ROW     1   COL     1   RATE     2626.63      CHD-1
 BOUNDARY      2   LAYER   1   ROW     4   COL     1   RATE     4720.08    
 BOUNDARY      3   LAYER   1   ROW     5   COL     1   RATE     845.173      CHD_GP
 BOUNDARY      4   LAYER   1   ROW     6   COL     1   RATE     4307.39      CHD_GP
 BOUNDARY      5   LAYER   1   ROW    10   COL     1   RATE     1742.90      CHD-10

 HEAD WILL BE SAVED ON UNIT 1018 AT END OF TIME STEP    7, STRESS PERIOD    5
WEL   no.    1 value from time series:  -17000.     for time:  8.400     to  8.600    
WEL   no.    2 value from time series:  -30000.     for time:  8.400     to  8.600    
RIV   no.    1 value from time series:   102.17     for time:  8.400     to  8.600    
RIV   no.    2 value from time series:   102.17     for time:  8.400     to  8.600    
RIV   no.    3 value from time series:   102.17     for time:  8.400     to  8.600    
RIV   no.    4 value from time series:   102.17     for time:  8.400     to  8.600    
RIV   no.    5 value from time series:   102.17     for time:  8.400     to  8.600    
RIV   no.    6 value from time series:   102.17     for time:  8.400     to  8.600    
RIV   no.    7 value from time series:   102.17     for time:  8.400     to  8.600    
RIV   no.    8 value from time series:   102.17     for time:  8.400     to  8.600    
RIV   no.    9 value from time series:   102.17     for time:  8.400     to  8.600    
RIV   no.   10 value from time series:   102.17     for time:  8.400     to  8.600    
EVT   no.    1 value from time series:   1307.8     for time:  8.400     to  8.600    
EVT   no.    2 value from time series:   2615.6     for time:  8.400     to  8.600    
EVT   no.    3 value from time series:   3923.4     for time:  8.400     to  8.600    
EVT   no.    4 value from time series:   5231.3     for time:  8.400     to  8.600    
EVT   no.   10 value from time series:   653.91     for time:  8.400     to  8.600    
EVT   no.   11 value from time series:   1307.8     for time:  8.400     to  8.600    
EVT   no.   12 value from time series:   2615.6     for time:  8.400     to  8.600    
EVT   no.   13 value from time series:   3923.4     for time:  8.400     to  8.600    
EVT   no.   14 value from time series:   5231.3     for time:  8.400     to  8.600    
EVT   no.   20 value from time series:   653.91     for time:  8.400     to  8.600    
WEL   no.    1 value from time series:  -17000.     for time:  8.400     to  8.600    
WEL   no.    2 value from time series:  -30000.     for time:  8.400     to  8.600    
RIV   no.    1 value from time series:   102.17     for time:  8.400     to  8.600    
RIV   no.    2 value from time series:   102.17     for time:  8.400     to  8.600    
RIV   no.    3 value from time series:   102.17     for time:  8.400     to  8.600    
RIV   no.    4 value from time series:   102.17     for time:  8.400     to  8.600    
RIV   no.    5 value from time series:   102.17     for time:  8.400     to  8.600    
RIV   no.    6 value from time series:   102.17     for time:  8.400     to  8.600    
RIV   no.    7 value from time series:   102.17     for time:  8.400     to  8.600    
RIV   no.    8 value from time series:   102.17     for time:  8.400     to  8.600    
RIV   no.    9 value from time series:   102.17     for time:  8.400     to  8.600    
RIV   no.   10 value from time series:   102.17     for time:  8.400     to  8.600    
EVT   no.    1 value from time series:   1307.8     for time:  8.400     to  8.600    
EVT   no.    2 value from time series:   2615.6     for time:  8.400     to  8.600    
EVT   no.    3 value from time series:   3923.4     for time:  8.400     to  8.600    
EVT   no.    4 value from time series:   5231.3     for time:  8.400     to  8.600    
EVT   no.   10 value from time series:   653.91     for time:  8.400     to  8.600    
EVT   no.   11 value from time series:   1307.8     for time:  8.400     to  8.600    
EVT   no.   12 value from time series:   2615.6     for time:  8.400     to  8.600    
EVT   no.   13 value from time series:   3923.4     for time:  8.400     to  8.600    
EVT   no.   14 value from time series:   5231.3     for time:  8.400     to  8.600    
EVT   no.   20 value from time series:   653.91     for time:  8.400     to  8.600    

 OUTPUT CONTROL FOR STRESS PERIOD    5   TIME STEP    8
    SAVE BUDGET
    SAVE HEAD
    SAVE HEAD FOR ALL LAYERS
 UBDSV1 SAVING      STORAGE(SS) ON UNIT   1017 AT TIME STEP      8, STRESS PERIOD      5
 UBDSV1 SAVING      STORAGE(SY) ON UNIT   1017 AT TIME STEP      8, STRESS PERIOD      5
 UBDSV1 SAVING FLOW RIGHT FACE  ON UNIT   1017 AT TIME STEP      8, STRESS PERIOD      5
 UBDSV1 SAVING FLOW FRONT FACE  ON UNIT   1017 AT TIME STEP      8, STRESS PERIOD      5
 UBDSV1 SAVING FLOW LOWER FACE  ON UNIT   1017 AT TIME STEP      8, STRESS PERIOD      5
 UBDSV4 SAVING WELLS NEAR RIVER ON UNIT   1017 AT TIME STEP      8, STRESS PERIOD      5

 WELLS NEAR RIVER   PERIOD  5   STEP  8
 BOUNDARY      1   LAYER   2   ROW     8   COL     4   RATE    -17000.0      WELL_2
 BOUNDARY      2   LAYER   2   ROW     3   COL     4   RATE    -30000.0      WELL_1
 UBDSV4 SAVING RIVER            ON UNIT   1017 AT TIME STEP      8, STRESS PERIOD      5

 RIVER              PERIOD  5   STEP  8
 BOUNDARY      1   LAYER   1   ROW     1   COL    15   RATE    -6583.28    
 BOUNDARY      2   LAYER   1   ROW     2   COL    15   RATE    -6565.60      RIV2
 BOUNDARY      3   LAYER   1   ROW     3   COL    15   RATE    -6539.11      RIV3
 BOUNDARY      4   LAYER   1   ROW     4   COL    15   RATE    -6511.51    
 BOUNDARY      5   LAYER   1   ROW     5   COL    15   RATE    -6490.09    
 BOUNDARY      6   LAYER   1   ROW     6   COL    15   RATE    -6489.45    
 BOUNDARY      7   LAYER   1   ROW     7   COL    15   RATE    -6510.03      RIVX
 BOUNDARY      8   LAYER   1   ROW     8   COL    15   RATE    -6540.59      RIVX
 BOUNDARY      9   LAYER   1   ROW     9   COL    15   RATE    -6572.55      RIVX
 BOUNDARY     10   LAYER   1   ROW    10   COL    15   RATE    -6595.37    

 GHB LAKES          PERIOD  5   STEP  8
 BOUNDARY      1   LAYER   1   ROW     3   COL     1   RATE    -8007.63    
 BOUNDARY      2   LAYER   1   ROW     7   COL     1   RATE     4248.57      GHB2_UPPER
 BOUNDARY      3   LAYER   1   ROW     7   COL     1   RATE    -11051.8      GHB2_LOWER
 UBDSV4 SAVING RECHARGE         ON UNIT   1017 AT TIME STEP      8, STRESS PERIOD      5

 RECHARGE           PERIOD  5   STEP  8
 BOUNDARY      2   LAYER   1   ROW     1   COL     2   RATE     750.000    
 BOUNDARY      3   LAYER   1   ROW     1   COL     3   RATE     750.000    
 BOUNDARY      4   LAYER   1   ROW     1   COL     4   RATE     750.000    
 BOUNDARY      5   LAYER   1   ROW     1   COL     5   RATE     750.000    
 BOUNDARY      6   LAYER   1   ROW     1   COL     6   RATE     750.000    
 BOUNDARY      7   LAYER   1   ROW     1   COL     7   RATE     750.000    
 BOUNDARY      8   LAYER   1   ROW     1   COL     8   RATE     750.000    
 BOUNDARY      9   LAYER   1   ROW     1   COL     9   RATE     750.000    
 BOUNDARY     10   LAYER   1   ROW     1   COL    10   RATE     750.000    
 BOUNDARY     11   LAYER   1   ROW     1   COL    11   RATE     750.000    
 BOUNDARY     12   LAYER   1   ROW     1   COL    12   RATE     750.000    
 BOUNDARY     13   LAYER   1   ROW     1   COL    13   RATE     750.000    
 BOUNDARY     14   LAYER   1   ROW     1   COL    14   RATE     750.000    
 BOUNDARY     15   LAYER   1   ROW     1   COL    15   RATE     750.000    
 BOUNDARY     16   LAYER   1   ROW     2   COL     1   RATE     750.000    
 BOUNDARY     17   LAYER   1   ROW     2   COL     2   RATE     750.000    
 BOUNDARY     18   LAYER   1   ROW     2   COL     3   RATE     750.000    
 BOUNDARY     19   LAYER   1   ROW     2   COL     4   RATE     750.000    
 BOUNDARY     20   LAYER   1   ROW     2   COL     5   RATE     750.000    
 BOUNDARY     21   LAYER   1   ROW     2   COL     6   RATE     750.000    
 BOUNDARY     22   LAYER   1   ROW     2   COL     7   RATE     750.000    
 BOUNDARY     23   LAYER   1   ROW     2   COL     8   RATE     750.000    
 BOUNDARY     24   LAYER   1   ROW     2   COL     9   RATE     750.000    
 BOUNDARY     25   LAYER   1   ROW     2   COL    10   RATE     750.000    
 BOUNDARY     26   LAYER   1   ROW     2   COL    11   RATE     750.000    
 BOUNDARY     27   LAYER   1   ROW     2   COL    12   RATE     750.000    
 BOUNDARY     28   LAYER   1   ROW     2   COL    13   RATE     750.000    
 BOUNDARY     29   LAYER   1   ROW     2   COL    14   RATE     750.000    
 BOUNDARY     30   LAYER   1   ROW     2   COL    15   RATE     750.000    
 BOUNDARY     31   LAYER   1   ROW     3   COL     1   RATE     750.000    
 BOUNDARY     32   LAYER   1   ROW     3   COL     2   RATE     750.000    
 BOUNDARY     33   LAYER   1   ROW     3   COL     3   RATE     750.000    
 BOUNDARY     34   LAYER   1   ROW     3   COL     4   RATE     750.000    
 BOUNDARY     35   LAYER   1   ROW     3   COL     5   RATE     750.000    
 BOUNDARY     36   LAYER   1   ROW     3   COL     6   RATE     750.000    
 BOUNDARY     37   LAYER   1   ROW     3   COL     7   RATE     750.000    
 BOUNDARY     38   LAYER   1   ROW     3   COL     8   RATE     750.000    
 BOUNDARY     39   LAYER   1   ROW     3   COL     9   RATE     750.000    
 BOUNDARY     40   LAYER   1   ROW     3   COL    10   RATE     750.000    
 BOUNDARY     41   LAYER   1   ROW     3   COL    11   RATE     750.000    
 BOUNDARY     42   LAYER   1   ROW     3   COL    12   RATE     750.000    
 BOUNDARY     43   LAYER   1   ROW     3   COL    13   RATE     750.000    
 BOUNDARY     44   LAYER   1   ROW     3   COL    14   RATE     750.000    
 BOUNDARY     45   LAYER   1   ROW     3   COL    15   RATE     750.000    
 BOUNDARY     47   LAYER   1   ROW     4   COL     2   RATE     750.000    
 BOUNDARY     48   LAYER   1   ROW     4   COL     3   RATE     750.000    
 BOUNDARY     49   LAYER   1   ROW     4   COL     4   RATE     750.000    
 BOUNDARY     50   LAYER   1   ROW     4   COL     5   RATE     750.000    
 BOUNDARY     51   LAYER   1   ROW     4   COL     6   RATE     750.000    
 BOUNDARY     52   LAYER   1   ROW     4   COL     7   RATE     750.000    
 BOUNDARY     53   LAYER   1   ROW     4   COL     8   RATE     750.000    
 BOUNDARY     54   LAYER   1   ROW     4   COL     9   RATE     750.000    
 BOUNDARY     55   LAYER   1   ROW     4   COL    10   RATE     750.000    
 BOUNDARY     56   LAYER   1   ROW     4   COL    11   RATE     750.000    
 BOUNDARY     57   LAYER   1   ROW     4   COL    12   RATE     750.000    
 BOUNDARY     58   LAYER   1   ROW     4   COL    13   RATE     750.000    
 BOUNDARY     59   LAYER   1   ROW     4   COL    14   RATE     750.000    
 BOUNDARY     60   LAYER   1   ROW     4   COL    15   RATE     750.000    
 BOUNDARY     62   LAYER   1   ROW     5   COL     2   RATE     750.000    
 BOUNDARY     63   LAYER   1   ROW     5   COL     3   RATE     750.000    
 BOUNDARY     64   LAYER   1   ROW     5   COL     4   RATE     750.000    
 BOUNDARY     65   LAYER   1   ROW     5   COL     5   RATE     750.000    
 BOUNDARY     66   LAYER   1   ROW     5   COL     6   RATE     750.000    
 BOUNDARY     67   LAYER   1   ROW     5   COL     7   RATE     750.000    
 BOUNDARY     68   LAYER   1   ROW     5   COL     8   RATE     750.000    
 BOUNDARY     69   LAYER   1   ROW     5   COL     9   RATE     750.000    
 BOUNDARY     70   LAYER   1   ROW     5   COL    10   RATE     750.000    
 BOUNDARY     71   LAYER   1   ROW     5   COL    11   RATE     750.000    
 BOUNDARY     72   LAYER   1   ROW     5   COL    12   RATE     750.000    
 BOUNDARY     73   LAYER   1   ROW     5   COL    13   RATE     750.000    
 BOUNDARY     74   LAYER   1   ROW     5   COL    14   RATE     750.000    
 BOUNDARY     75   LAYER   1   ROW     5   COL    15   RATE     750.000    
 BOUNDARY     77   LAYER   1   ROW     6   COL     2   RATE     750.000    
 BOUNDARY     78   LAYER   1   ROW     6   COL     3   RATE     750.000    
 BOUNDARY     79   LAYER   1   ROW     6   COL     4   RATE     750.000    
 BOUNDARY     80   LAYER   1   ROW     6   COL     5   RATE     750.000    
 BOUNDARY     81   LAYER   1   ROW     6   COL     6   RATE     750.000    
 BOUNDARY     82   LAYER   1   ROW     6   COL     7   RATE     750.000    
 BOUNDARY     83   LAYER   1   ROW     6   COL     8   RATE     750.000    
 BOUNDARY     84   LAYER   1   ROW     6   COL     9   RATE     750.000    
 BOUNDARY     85   LAYER   1   ROW     6   COL    10   RATE     750.000    
 BOUNDARY     86   LAYER   1   ROW     6   COL    11   RATE     750.000    
 BOUNDARY     87   LAYER   1   ROW     6   COL    12   RATE     750.000    
 BOUNDARY     88   LAYER   1   ROW     6   COL    13   RATE     750.000    
 BOUNDARY     89   LAYER   1   ROW     6   COL    14   RATE     750.000    
 BOUNDARY     90   LAYER   1   ROW     6   COL    15   RATE     750.000    
 BOUNDARY     91   LAYER   1   ROW     7   COL     1   RATE     750.000    
 BOUNDARY     92   LAYER   1   ROW     7   COL     2   RATE     750.000    
 BOUNDARY     93   LAYER   1   ROW     7   COL     3   RATE     750.000    
 BOUNDARY     94   LAYER   1   ROW     7   COL     4   RATE     750.000    
 BOUNDARY     95   LAYER   1   ROW     7   COL     5   RATE     750.000    
 BOUNDARY     96   LAYER   1   ROW     7   COL     6   RATE     750.000    
 BOUNDARY     97   LAYER   1   ROW     7   COL     7   RATE     750.000    
 BOUNDARY     98   LAYER   1   ROW     7   COL     8   RATE     750.000    
 BOUNDARY     99   LAYER   1   ROW     7   COL     9   RATE     750.000    
 BOUNDARY    100   LAYER   1   ROW     7   COL    10   RATE     750.000    
 BOUNDARY    101   LAYER   1   ROW     7   COL    11   RATE     750.000    
 BOUNDARY    102   LAYER   1   ROW     7   COL    12   RATE     750.000    
 BOUNDARY    103   LAYER   1   ROW     7   COL    13   RATE     750.000    
 BOUNDARY    104   LAYER   1   ROW     7   COL    14   RATE     750.000    
 BOUNDARY    105   LAYER   1   ROW     7   COL    15   RATE     750.000    
 BOUNDARY    106   LAYER   1   ROW     8   COL     1   RATE     750.000    
 BOUNDARY    107   LAYER   1   ROW     8   COL     2   RATE     750.000    
 BOUNDARY    108   LAYER   1   ROW     8   COL     3   RATE     750.000    
 BOUNDARY    109   LAYER   1   ROW     8   COL     4   RATE     750.000    
 BOUNDARY    110   LAYER   1   ROW     8   COL     5   RATE     750.000    
 BOUNDARY    111   LAYER   1   ROW     8   COL     6   RATE     750.000    
 BOUNDARY    112   LAYER   1   ROW     8   COL     7   RATE     750.000    
 BOUNDARY    113   LAYER   1   ROW     8   COL     8   RATE     750.000    
 BOUNDARY    114   LAYER   1   ROW     8   COL     9   RATE     750.000    
 BOUNDARY    115   LAYER   1   ROW     8   COL    10   RATE     750.000    
 BOUNDARY    116   LAYER   1   ROW     8   COL    11   RATE     750.000    
 BOUNDARY    117   LAYER   1   ROW     8   COL    12   RATE     750.000    
 BOUNDARY    118   LAYER   1   ROW     8   COL    13   RATE     750.000    
 BOUNDARY    119   LAYER   1   ROW     8   COL    14   RATE     750.000    
 BOUNDARY    120   LAYER   1   ROW     8   COL    15   RATE     750.000    
 BOUNDARY    121   LAYER   1   ROW     9   COL     1   RATE     750.000    
 BOUNDARY    122   LAYER   1   ROW     9   COL     2   RATE     750.000    
 BOUNDARY    123   LAYER   1   ROW     9   COL     3   RATE     750.000    
 BOUNDARY    124   LAYER   1   ROW     9   COL     4   RATE     750.000    
 BOUNDARY    125   LAYER   1   ROW     9   COL     5   RATE     750.000    
 BOUNDARY    126   LAYER   1   ROW     9   COL     6   RATE     750.000    
 BOUNDARY    127   LAYER   1   ROW     9   COL     7   RATE     750.000    
 BOUNDARY    128   LAYER   1   ROW     9   COL     8   RATE     750.000    
 BOUNDARY    129   LAYER   1   ROW     9   COL     9   RATE     750.000    
 BOUNDARY    130   LAYER   1   ROW     9   COL    10   RATE     750.000    
 BOUNDARY    131   LAYER   1   ROW     9   COL    11   RATE     750.000    
 BOUNDARY    132   LAYER   1   ROW     9   COL    12   RATE     750.000    
 BOUNDARY    133   LAYER   1   ROW     9   COL    13   RATE     750.000    
 BOUNDARY    134   LAYER   1   ROW     9   COL    14   RATE     750.000    
 BOUNDARY    135   LAYER   1   ROW     9   COL    15   RATE     750.000    
 BOUNDARY    137   LAYER   1   ROW    10   COL     2   RATE     750.000    
 BOUNDARY    138   LAYER   1   ROW    10   COL     3   RATE     750.000    
 BOUNDARY    139   LAYER   1   ROW    10   COL     4   RATE     750.000    
 BOUNDARY    140   LAYER   1   ROW    10   COL     5   RATE     750.000    
 BOUNDARY    141   LAYER   1   ROW    10   COL     6   RATE     750.000    
 BOUNDARY    142   LAYER   1   ROW    10   COL     7   RATE     750.000    
 BOUNDARY    143   LAYER   1   ROW    10   COL     8   RATE     750.000    
 BOUNDARY    144   LAYER   1   ROW    10   COL     9   RATE     750.000    
 BOUNDARY    145   LAYER   1   ROW    10   COL    10   RATE     750.000    
 BOUNDARY    146   LAYER   1   ROW    10   COL    11   RATE     750.000    
 BOUNDARY    147   LAYER   1   ROW    10   COL    12   RATE     750.000    
 BOUNDARY    148   LAYER   1   ROW    10   COL    13   RATE     750.000    
 BOUNDARY    149   LAYER   1   ROW    10   COL    14   RATE     750.000    
 BOUNDARY    150   LAYER   1   ROW    10   COL    15   RATE     750.000    
 UBDSV4 SAVING ET SEGS          ON UNIT   1017 AT TIME STEP      8, STRESS PERIOD      5

 ET SEGS            PERIOD  5   STEP  8
 BOUNDARY      1   LAYER   1   ROW     1   COL    13   RATE    -104.793      ET-1
 BOUNDARY      2   LAYER   1   ROW     2   COL    13   RATE    -198.369      ET-2
 BOUNDARY      3   LAYER   1   ROW     3   COL    13   RATE    -274.822      ET-3
 BOUNDARY      4   LAYER   1   ROW     4   COL    13   RATE    -335.253      ET-4
 BOUNDARY      5   LAYER   1   ROW     5   COL    13   RATE    -293.847      ET-5
 BOUNDARY      6   LAYER   1   ROW     6   COL    13   RATE    -293.008      ET-6
 BOUNDARY      7   LAYER   1   ROW     7   COL    13   RATE    -222.878      ET-7
 BOUNDARY      8   LAYER   1   ROW     8   COL    13   RATE    -175.704      ET-8
 BOUNDARY      9   LAYER   1   ROW     9   COL    13   RATE    -115.966      ET-9
 BOUNDARY     10   LAYER   1   ROW    10   COL    13   RATE    -54.2242      ET-10
 BOUNDARY     11   LAYER   1   ROW     1   COL    12   RATE    -168.430      ET-1
 BOUNDARY     12   LAYER   1   ROW     2   COL    12   RATE    -295.147      ET-2
 BOUNDARY     13   LAYER   1   ROW     3   COL    12   RATE    -381.852      ET-3
 BOUNDARY     14   LAYER   1   ROW     4   COL    12   RATE    -473.394      ET-4
 BOUNDARY     15   LAYER   1   ROW     5   COL    12   RATE    -421.293      ET-5
 BOUNDARY     16   LAYER   1   ROW     6   COL    12   RATE    -420.433      ET-6
 BOUNDARY     17   LAYER   1   ROW     7   COL    12   RATE    -315.371      ET-7
 BOUNDARY     18   LAYER   1   ROW     8   COL    12   RATE    -244.227      ET-8
 BOUNDARY     19   LAYER   1   ROW     9   COL    12   RATE    -177.875      ET-9
 BOUNDARY     20   LAYER   1   ROW    10   COL    12   RATE    -91.4378      ET-10
 UBDSV4 SAVING CONSTANT HEADS   ON UNIT   1017 AT TIME STEP      8, STRESS PERIOD      5

 CONSTANT HEADS     PERIOD  5   STEP  8
 BOUNDARY      1   LAYER   1   ROW     1   COL     1   RATE     2626.34      CHD-1
 BOUNDARY      2   LAYER   1   ROW     4   COL     1   RATE     4720.37    
 BOUNDARY      3   LAYER   1   ROW     5   COL     1   RATE     845.992      CHD_GP
 BOUNDARY      4   LAYER   1   ROW     6   COL     1   RATE     4307.93      CHD_GP
 BOUNDARY      5   LAYER   1   ROW    10   COL     1   RATE     1742.71      CHD-10

 HEAD WILL BE SAVED ON UNIT 1018 AT END OF TIME STEP    8, STRESS PERIOD    5
WEL   no.    1 value from time series:  -17400.     for time:  8.600     to  8.800    
WEL   no.    2 value from time series:  -30000.     for time:  8.600     to  8.800    
RIV   no.    1 value from time series:   102.10     for time:  8.600     to  8.800    
RIV   no.    2 value from time series:   102.10     for time:  8.600     to  8.800    
RIV   no.    3 value from time series:   102.10     for time:  8.600     to  8.800    
RIV   no.    4 value from time series:   102.10     for time:  8.600     to  8.800    
RIV   no.    5 value from time series:   102.10     for time:  8.600     to  8.800    
RIV   no.    6 value from time series:   102.10     for time:  8.600     to  8.800    
RIV   no.    7 value from time series:   102.10     for time:  8.600     to  8.800    
RIV   no.    8 value from time series:   102.10     for time:  8.600     to  8.800    
RIV   no.    9 value from time series:   102.10     for time:  8.600     to  8.800    
RIV   no.   10 value from time series:   102.10     for time:  8.600     to  8.800    
EVT   no.    1 value from time series:   1324.7     for time:  8.600     to  8.800    
EVT   no.    2 value from time series:   2649.4     for time:  8.600     to  8.800    
EVT   no.    3 value from time series:   3974.1     for time:  8.600     to  8.800    
EVT   no.    4 value from time series:   5298.8     for time:  8.600     to  8.800    
EVT   no.   10 value from time series:   662.34     for time:  8.600     to  8.800    
EVT   no.   11 value from time series:   1324.7     for time:  8.600     to  8.800    
EVT   no.   12 value from time series:   2649.4     for time:  8.600     to  8.800    
EVT   no.   13 value from time series:   3974.1     for time:  8.600     to  8.800    
EVT   no.   14 value from time series:   5298.8     for time:  8.600     to  8.800    
EVT   no.   20 value from time series:   662.34     for time:  8.600     to  8.800    
WEL   no.    1 value from time series:  -17400.     for time:  8.600     to  8.800    
WEL   no.    2 value from time series:  -30000.     for time:  8.600     to  8.800    
RIV   no.    1 value from time series:   102.10     for time:  8.600     to  8.800    
RIV   no.    2 value from time series:   102.10     for time:  8.600     to  8.800    
RIV   no.    3 value from time series:   102.10     for time:  8.600     to  8.800    
RIV   no.    4 value from time series:   102.10     for time:  8.600     to  8.800    
RIV   no.    5 value from time series:   102.10     for time:  8.600     to  8.800    
RIV   no.    6 value from time series:   102.10     for time:  8.600     to  8.800    
RIV   no.    7 value from time series:   102.10     for time:  8.600     to  8.800    
RIV   no.    8 value from time series:   102.10     for time:  8.600     to  8.800    
RIV   no.    9 value from time series:   102.10     for time:  8.600     to  8.800    
RIV   no.   10 value from time series:   102.10     for time:  8.600     to  8.800    
EVT   no.    1 value from time series:   1324.7     for time:  8.600     to  8.800    
EVT   no.    2 value from time series:   2649.4     for time:  8.600     to  8.800    
EVT   no.    3 value from time series:   3974.1     for time:  8.600     to  8.800    
EVT   no.    4 value from time series:   5298.8     for time:  8.600     to  8.800    
EVT   no.   10 value from time series:   662.34     for time:  8.600     to  8.800    
EVT   no.   11 value from time series:   1324.7     for time:  8.600     to  8.800    
EVT   no.   12 value from time series:   2649.4     for time:  8.600     to  8.800    
EVT   no.   13 value from time series:   3974.1     for time:  8.600     to  8.800    
EVT   no.   14 value from time series:   5298.8     for time:  8.600     to  8.800    
EVT   no.   20 value from time series:   662.34     for time:  8.600     to  8.800    

 OUTPUT CONTROL FOR STRESS PERIOD    5   TIME STEP    9
    SAVE BUDGET
    SAVE HEAD
    SAVE HEAD FOR ALL LAYERS
 UBDSV1 SAVING      STORAGE(SS) ON UNIT   1017 AT TIME STEP      9, STRESS PERIOD      5
 UBDSV1 SAVING      STORAGE(SY) ON UNIT   1017 AT TIME STEP      9, STRESS PERIOD      5
 UBDSV1 SAVING FLOW RIGHT FACE  ON UNIT   1017 AT TIME STEP      9, STRESS PERIOD      5
 UBDSV1 SAVING FLOW FRONT FACE  ON UNIT   1017 AT TIME STEP      9, STRESS PERIOD      5
 UBDSV1 SAVING FLOW LOWER FACE  ON UNIT   1017 AT TIME STEP      9, STRESS PERIOD      5
 UBDSV4 SAVING WELLS NEAR RIVER ON UNIT   1017 AT TIME STEP      9, STRESS PERIOD      5

 WELLS NEAR RIVER   PERIOD  5   STEP  9
 BOUNDARY      1   LAYER   2   ROW     8   COL     4   RATE    -17400.0      WELL_2
 BOUNDARY      2   LAYER   2   ROW     3   COL     4   RATE    -30000.0      WELL_1
 UBDSV4 SAVING RIVER            ON UNIT   1017 AT TIME STEP      9, STRESS PERIOD      5

 RIVER              PERIOD  5   STEP  9
 BOUNDARY      1   LAYER   1   ROW     1   COL    15   RATE    -6761.97    
 BOUNDARY      2   LAYER   1   ROW     2   COL    15   RATE    -6744.28      RIV2
 BOUNDARY      3   LAYER   1   ROW     3   COL    15   RATE    -6717.76      RIV3
 BOUNDARY      4   LAYER   1   ROW     4   COL    15   RATE    -6690.14    
 BOUNDARY      5   LAYER   1   ROW     5   COL    15   RATE    -6668.71    
 BOUNDARY      6   LAYER   1   ROW     6   COL    15   RATE    -6668.06    
 BOUNDARY      7   LAYER   1   ROW     7   COL    15   RATE    -6688.66      RIVX
 BOUNDARY      8   LAYER   1   ROW     8   COL    15   RATE    -6719.25      RIVX
 BOUNDARY      9   LAYER   1   ROW     9   COL    15   RATE    -6751.24      RIVX
 BOUNDARY     10   LAYER   1   ROW    10   COL    15   RATE    -6774.08    

 GHB LAKES          PERIOD  5   STEP  9
 BOUNDARY      1   LAYER   1   ROW     3   COL     1   RATE    -8011.72    
 BOUNDARY      2   LAYER   1   ROW     7   COL     1   RATE     4245.12      GHB2_UPPER
 BOUNDARY      3   LAYER   1   ROW     7   COL     1   RATE    -11053.1      GHB2_LOWER
 UBDSV4 SAVING RECHARGE         ON UNIT   1017 AT TIME STEP      9, STRESS PERIOD      5

 RECHARGE           PERIOD  5   STEP  9
 BOUNDARY      2   LAYER   1   ROW     1   COL     2   RATE     750.000    
 BOUNDARY      3   LAYER   1   ROW     1   COL     3   RATE     750.000    
 BOUNDARY      4   LAYER   1   ROW     1   COL     4   RATE     750.000    
 BOUNDARY      5   LAYER   1   ROW     1   COL     5   RATE     750.000    
 BOUNDARY      6   LAYER   1   ROW     1   COL     6   RATE     750.000    
 BOUNDARY      7   LAYER   1   ROW     1   COL     7   RATE     750.000    
 BOUNDARY      8   LAYER   1   ROW     1   COL     8   RATE     750.000    
 BOUNDARY      9   LAYER   1   ROW     1   COL     9   RATE     750.000    
 BOUNDARY     10   LAYER   1   ROW     1   COL    10   RATE     750.000    
 BOUNDARY     11   LAYER   1   ROW     1   COL    11   RATE     750.000    
 BOUNDARY     12   LAYER   1   ROW     1   COL    12   RATE     750.000    
 BOUNDARY     13   LAYER   1   ROW     1   COL    13   RATE     750.000    
 BOUNDARY     14   LAYER   1   ROW     1   COL    14   RATE     750.000    
 BOUNDARY     15   LAYER   1   ROW     1   COL    15   RATE     750.000    
 BOUNDARY     16   LAYER   1   ROW     2   COL     1   RATE     750.000    
 BOUNDARY     17   LAYER   1   ROW     2   COL     2   RATE     750.000    
 BOUNDARY     18   LAYER   1   ROW     2   COL     3   RATE     750.000    
 BOUNDARY     19   LAYER   1   ROW     2   COL     4   RATE     750.000    
 BOUNDARY     20   LAYER   1   ROW     2   COL     5   RATE     750.000    
 BOUNDARY     21   LAYER   1   ROW     2   COL     6   RATE     750.000    
 BOUNDARY     22   LAYER   1   ROW     2   COL     7   RATE     750.000    
 BOUNDARY     23   LAYER   1   ROW     2   COL     8   RATE     750.000    
 BOUNDARY     24   LAYER   1   ROW     2   COL     9   RATE     750.000    
 BOUNDARY     25   LAYER   1   ROW     2   COL    10   RATE     750.000    
 BOUNDARY     26   LAYER   1   ROW     2   COL    11   RATE     750.000    
 BOUNDARY     27   LAYER   1   ROW     2   COL    12   RATE     750.000    
 BOUNDARY     28   LAYER   1   ROW     2   COL    13   RATE     750.000    
 BOUNDARY     29   LAYER   1   ROW     2   COL    14   RATE     750.000    
 BOUNDARY     30   LAYER   1   ROW     2   COL    15   RATE     750.000    
 BOUNDARY     31   LAYER   1   ROW     3   COL     1   RATE     750.000    
 BOUNDARY     32   LAYER   1   ROW     3   COL     2   RATE     750.000    
 BOUNDARY     33   LAYER   1   ROW     3   COL     3   RATE     750.000    
 BOUNDARY     34   LAYER   1   ROW     3   COL     4   RATE     750.000    
 BOUNDARY     35   LAYER   1   ROW     3   COL     5   RATE     750.000    
 BOUNDARY     36   LAYER   1   ROW     3   COL     6   RATE     750.000    
 BOUNDARY     37   LAYER   1   ROW     3   COL     7   RATE     750.000    
 BOUNDARY     38   LAYER   1   ROW     3   COL     8   RATE     750.000    
 BOUNDARY     39   LAYER   1   ROW     3   COL     9   RATE     750.000    
 BOUNDARY     40   LAYER   1   ROW     3   COL    10   RATE     750.000    
 BOUNDARY     41   LAYER   1   ROW     3   COL    11   RATE     750.000    
 BOUNDARY     42   LAYER   1   ROW     3   COL    12   RATE     750.000    
 BOUNDARY     43   LAYER   1   ROW     3   COL    13   RATE     750.000    
 BOUNDARY     44   LAYER   1   ROW     3   COL    14   RATE     750.000    
 BOUNDARY     45   LAYER   1   ROW     3   COL    15   RATE     750.000    
 BOUNDARY     47   LAYER   1   ROW     4   COL     2   RATE     750.000    
 BOUNDARY     48   LAYER   1   ROW     4   COL     3   RATE     750.000    
 BOUNDARY     49   LAYER   1   ROW     4   COL     4   RATE     750.000    
 BOUNDARY     50   LAYER   1   ROW     4   COL     5   RATE     750.000    
 BOUNDARY     51   LAYER   1   ROW     4   COL     6   RATE     750.000    
 BOUNDARY     52   LAYER   1   ROW     4   COL     7   RATE     750.000    
 BOUNDARY     53   LAYER   1   ROW     4   COL     8   RATE     750.000    
 BOUNDARY     54   LAYER   1   ROW     4   COL     9   RATE     750.000    
 BOUNDARY     55   LAYER   1   ROW     4   COL    10   RATE     750.000    
 BOUNDARY     56   LAYER   1   ROW     4   COL    11   RATE     750.000    
 BOUNDARY     57   LAYER   1   ROW     4   COL    12   RATE     750.000    
 BOUNDARY     58   LAYER   1   ROW     4   COL    13   RATE     750.000    
 BOUNDARY     59   LAYER   1   ROW     4   COL    14   RATE     750.000    
 BOUNDARY     60   LAYER   1   ROW     4   COL    15   RATE     750.000    
 BOUNDARY     62   LAYER   1   ROW     5   COL     2   RATE     750.000    
 BOUNDARY     63   LAYER   1   ROW     5   COL     3   RATE     750.000    
 BOUNDARY     64   LAYER   1   ROW     5   COL     4   RATE     750.000    
 BOUNDARY     65   LAYER   1   ROW     5   COL     5   RATE     750.000    
 BOUNDARY     66   LAYER   1   ROW     5   COL     6   RATE     750.000    
 BOUNDARY     67   LAYER   1   ROW     5   COL     7   RATE     750.000    
 BOUNDARY     68   LAYER   1   ROW     5   COL     8   RATE     750.000    
 BOUNDARY     69   LAYER   1   ROW     5   COL     9   RATE     750.000    
 BOUNDARY     70   LAYER   1   ROW     5   COL    10   RATE     750.000    
 BOUNDARY     71   LAYER   1   ROW     5   COL    11   RATE     750.000    
 BOUNDARY     72   LAYER   1   ROW     5   COL    12   RATE     750.000    
 BOUNDARY     73   LAYER   1   ROW     5   COL    13   RATE     750.000    
 BOUNDARY     74   LAYER   1   ROW     5   COL    14   RATE     750.000    
 BOUNDARY     75   LAYER   1   ROW     5   COL    15   RATE     750.000    
 BOUNDARY     77   LAYER   1   ROW     6   COL     2   RATE     750.000    
 BOUNDARY     78   LAYER   1   ROW     6   COL     3   RATE     750.000    
 BOUNDARY     79   LAYER   1   ROW     6   COL     4   RATE     750.000    
 BOUNDARY     80   LAYER   1   ROW     6   COL     5   RATE     750.000    
 BOUNDARY     81   LAYER   1   ROW     6   COL     6   RATE     750.000    
 BOUNDARY     82   LAYER   1   ROW     6   COL     7   RATE     750.000    
 BOUNDARY     83   LAYER   1   ROW     6   COL     8   RATE     750.000    
 BOUNDARY     84   LAYER   1   ROW     6   COL     9   RATE     750.000    
 BOUNDARY     85   LAYER   1   ROW     6   COL    10   RATE     750.000    
 BOUNDARY     86   LAYER   1   ROW     6   COL    11   RATE     750.000    
 BOUNDARY     87   LAYER   1   ROW     6   COL    12   RATE     750.000    
 BOUNDARY     88   LAYER   1   ROW     6   COL    13   RATE     750.000    
 BOUNDARY     89   LAYER   1   ROW     6   COL    14   RATE     750.000    
 BOUNDARY     90   LAYER   1   ROW     6   COL    15   RATE     750.000    
 BOUNDARY     91   LAYER   1   ROW     7   COL     1   RATE     750.000    
 BOUNDARY     92   LAYER   1   ROW     7   COL     2   RATE     750.000    
 BOUNDARY     93   LAYER   1   ROW     7   COL     3   RATE     750.000    
 BOUNDARY     94   LAYER   1   ROW     7   COL     4   RATE     750.000    
 BOUNDARY     95   LAYER   1   ROW     7   COL     5   RATE     750.000    
 BOUNDARY     96   LAYER   1   ROW     7   COL     6   RATE     750.000    
 BOUNDARY     97   LAYER   1   ROW     7   COL     7   RATE     750.000    
 BOUNDARY     98   LAYER   1   ROW     7   COL     8   RATE     750.000    
 BOUNDARY     99   LAYER   1   ROW     7   COL     9   RATE     750.000    
 BOUNDARY    100   LAYER   1   ROW     7   COL    10   RATE     750.000    
 BOUNDARY    101   LAYER   1   ROW     7   COL    11   RATE     750.000    
 BOUNDARY    102   LAYER   1   ROW     7   COL    12   RATE     750.000    
 BOUNDARY    103   LAYER   1   ROW     7   COL    13   RATE     750.000    
 BOUNDARY    104   LAYER   1   ROW     7   COL    14   RATE     750.000    
 BOUNDARY    105   LAYER   1   ROW     7   COL    15   RATE     750.000    
 BOUNDARY    106   LAYER   1   ROW     8   COL     1   RATE     750.000    
 BOUNDARY    107   LAYER   1   ROW     8   COL     2   RATE     750.000    
 BOUNDARY    108   LAYER   1   ROW     8   COL     3   RATE     750.000    
 BOUNDARY    109   LAYER   1   ROW     8   COL     4   RATE     750.000    
 BOUNDARY    110   LAYER   1   ROW     8   COL     5   RATE     750.000    
 BOUNDARY    111   LAYER   1   ROW     8   COL     6   RATE     750.000    
 BOUNDARY    112   LAYER   1   ROW     8   COL     7   RATE     750.000    
 BOUNDARY    113   LAYER   1   ROW     8   COL     8   RATE     750.000    
 BOUNDARY    114   LAYER   1   ROW     8   COL     9   RATE     750.000    
 BOUNDARY    115   LAYER   1   ROW     8   COL    10   RATE     750.000    
 BOUNDARY    116   LAYER   1   ROW     8   COL    11   RATE     750.000    
 BOUNDARY    117   LAYER   1   ROW     8   COL    12   RATE     750.000    
 BOUNDARY    118   LAYER   1   ROW     8   COL    13   RATE     750.000    
 BOUNDARY    119   LAYER   1   ROW     8   COL    14   RATE     750.000    
 BOUNDARY    120   LAYER   1   ROW     8   COL    15   RATE     750.000    
 BOUNDARY    121   LAYER   1   ROW     9   COL     1   RATE     750.000    
 BOUNDARY    122   LAYER   1   ROW     9   COL     2   RATE     750.000    
 BOUNDARY    123   LAYER   1   ROW     9   COL     3   RATE     750.000    
 BOUNDARY    124   LAYER   1   ROW     9   COL     4   RATE     750.000    
 BOUNDARY    125   LAYER   1   ROW     9   COL     5   RATE     750.000    
 BOUNDARY    126   LAYER   1   ROW     9   COL     6   RATE     750.000    
 BOUNDARY    127   LAYER   1   ROW     9   COL     7   RATE     750.000    
 BOUNDARY    128   LAYER   1   ROW     9   COL     8   RATE     750.000    
 BOUNDARY    129   LAYER   1   ROW     9   COL     9   RATE     750.000    
 BOUNDARY    130   LAYER   1   ROW     9   COL    10   RATE     750.000    
 BOUNDARY    131   LAYER   1   ROW     9   COL    11   RATE     750.000    
 BOUNDARY    132   LAYER   1   ROW     9   COL    12   RATE     750.000    
 BOUNDARY    133   LAYER   1   ROW     9   COL    13   RATE     750.000    
 BOUNDARY    134   LAYER   1   ROW     9   COL    14   RATE     750.000    
 BOUNDARY    135   LAYER   1   ROW     9   COL    15   RATE     750.000    
 BOUNDARY    137   LAYER   1   ROW    10   COL     2   RATE     750.000    
 BOUNDARY    138   LAYER   1   ROW    10   COL     3   RATE     750.000    
 BOUNDARY    139   LAYER   1   ROW    10   COL     4   RATE     750.000    
 BOUNDARY    140   LAYER   1   ROW    10   COL     5   RATE     750.000    
 BOUNDARY    141   LAYER   1   ROW    10   COL     6   RATE     750.000    
 BOUNDARY    142   LAYER   1   ROW    10   COL     7   RATE     750.000    
 BOUNDARY    143   LAYER   1   ROW    10   COL     8   RATE     750.000    
 BOUNDARY    144   LAYER   1   ROW    10   COL     9   RATE     750.000    
 BOUNDARY    145   LAYER   1   ROW    10   COL    10   RATE     750.000    
 BOUNDARY    146   LAYER   1   ROW    10   COL    11   RATE     750.000    
 BOUNDARY    147   LAYER   1   ROW    10   COL    12   RATE     750.000    
 BOUNDARY    148   LAYER   1   ROW    10   COL    13   RATE     750.000    
 BOUNDARY    149   LAYER   1   ROW    10   COL    14   RATE     750.000    
 BOUNDARY    150   LAYER   1   ROW    10   COL    15   RATE     750.000    
 UBDSV4 SAVING ET SEGS          ON UNIT   1017 AT TIME STEP      9, STRESS PERIOD      5

 ET SEGS            PERIOD  5   STEP  9
 BOUNDARY      1   LAYER   1   ROW     1   COL    13   RATE    -106.288      ET-1
 BOUNDARY      2   LAYER   1   ROW     2   COL    13   RATE    -201.198      ET-2
 BOUNDARY      3   LAYER   1   ROW     3   COL    13   RATE    -278.751      ET-3
 BOUNDARY      4   LAYER   1   ROW     4   COL    13   RATE    -340.069      ET-4
 BOUNDARY      5   LAYER   1   ROW     5   COL    13   RATE    -294.406      ET-5
 BOUNDARY      6   LAYER   1   ROW     6   COL    13   RATE    -293.570      ET-6
 BOUNDARY      7   LAYER   1   ROW     7   COL    13   RATE    -223.275      ET-7
 BOUNDARY      8   LAYER   1   ROW     8   COL    13   RATE    -175.989      ET-8
 BOUNDARY      9   LAYER   1   ROW     9   COL    13   RATE    -116.137      ET-9
 BOUNDARY     10   LAYER   1   ROW    10   COL    13   RATE    -54.9979      ET-10
 BOUNDARY     11   LAYER   1   ROW     1   COL    12   RATE    -171.043      ET-1
 BOUNDARY     12   LAYER   1   ROW     2   COL    12   RATE    -299.754      ET-2
 BOUNDARY     13   LAYER   1   ROW     3   COL    12   RATE    -387.123      ET-3
 BOUNDARY     14   LAYER   1   ROW     4   COL    12   RATE    -479.932      ET-4
 BOUNDARY     15   LAYER   1   ROW     5   COL    12   RATE    -421.835      ET-5
 BOUNDARY     16   LAYER   1   ROW     6   COL    12   RATE    -420.978      ET-6
 BOUNDARY     17   LAYER   1   ROW     7   COL    12   RATE    -315.756      ET-7
 BOUNDARY     18   LAYER   1   ROW     8   COL    12   RATE    -244.503      ET-8
 BOUNDARY     19   LAYER   1   ROW     9   COL    12   RATE    -178.419      ET-9
 BOUNDARY     20   LAYER   1   ROW    10   COL    12   RATE    -92.8507      ET-10
 UBDSV4 SAVING CONSTANT HEADS   ON UNIT   1017 AT TIME STEP      9, STRESS PERIOD      5

 CONSTANT HEADS     PERIOD  5   STEP  9
 BOUNDARY      1   LAYER   1   ROW     1   COL     1   RATE     2626.00      CHD-1
 BOUNDARY      2   LAYER   1   ROW     4   COL     1   RATE     4720.64    
 BOUNDARY      3   LAYER   1   ROW     5   COL     1   RATE     846.789      CHD_GP
 BOUNDARY      4   LAYER   1   ROW     6   COL     1   RATE     4308.46      CHD_GP
 BOUNDARY      5   LAYER   1   ROW    10   COL     1   RATE     1742.55      CHD-10

 HEAD WILL BE SAVED ON UNIT 1018 AT END OF TIME STEP    9, STRESS PERIOD    5
WEL   no.    1 value from time series:  -17800.     for time:  8.800     to  9.000    
WEL   no.    2 value from time series:  -30000.     for time:  8.800     to  9.000    
RIV   no.    1 value from time series:   102.03     for time:  8.800     to  9.000    
RIV   no.    2 value from time series:   102.03     for time:  8.800     to  9.000    
RIV   no.    3 value from time series:   102.03     for time:  8.800     to  9.000    
RIV   no.    4 value from time series:   102.03     for time:  8.800     to  9.000    
RIV   no.    5 value from time series:   102.03     for time:  8.800     to  9.000    
RIV   no.    6 value from time series:   102.03     for time:  8.800     to  9.000    
RIV   no.    7 value from time series:   102.03     for time:  8.800     to  9.000    
RIV   no.    8 value from time series:   102.03     for time:  8.800     to  9.000    
RIV   no.    9 value from time series:   102.03     for time:  8.800     to  9.000    
RIV   no.   10 value from time series:   102.03     for time:  8.800     to  9.000    
EVT   no.    1 value from time series:   1341.6     for time:  8.800     to  9.000    
EVT   no.    2 value from time series:   2683.1     for time:  8.800     to  9.000    
EVT   no.    3 value from time series:   4024.7     for time:  8.800     to  9.000    
EVT   no.    4 value from time series:   5366.2     for time:  8.800     to  9.000    
EVT   no.   10 value from time series:   670.78     for time:  8.800     to  9.000    
EVT   no.   11 value from time series:   1341.6     for time:  8.800     to  9.000    
EVT   no.   12 value from time series:   2683.1     for time:  8.800     to  9.000    
EVT   no.   13 value from time series:   4024.7     for time:  8.800     to  9.000    
EVT   no.   14 value from time series:   5366.2     for time:  8.800     to  9.000    
EVT   no.   20 value from time series:   670.78     for time:  8.800     to  9.000    
WEL   no.    1 value from time series:  -17800.     for time:  8.800     to  9.000    
WEL   no.    2 value from time series:  -30000.     for time:  8.800     to  9.000    
RIV   no.    1 value from time series:   102.03     for time:  8.800     to  9.000    
RIV   no.    2 value from time series:   102.03     for time:  8.800     to  9.000    
RIV   no.    3 value from time series:   102.03     for time:  8.800     to  9.000    
RIV   no.    4 value from time series:   102.03     for time:  8.800     to  9.000    
RIV   no.    5 value from time series:   102.03     for time:  8.800     to  9.000    
RIV   no.    6 value from time series:   102.03     for time:  8.800     to  9.000    
RIV   no.    7 value from time series:   102.03     for time:  8.800     to  9.000    
RIV   no.    8 value from time series:   102.03     for time:  8.800     to  9.000    
RIV   no.    9 value from time series:   102.03     for time:  8.800     to  9.000    
RIV   no.   10 value from time series:   102.03     for time:  8.800     to  9.000    
EVT   no.    1 value from time series:   1341.6     for time:  8.800     to  9.000    
EVT   no.    2 value from time series:   2683.1     for time:  8.800     to  9.000    
EVT   no.    3 value from time series:   4024.7     for time:  8.800     to  9.000    
EVT   no.    4 value from time series:   5366.2     for time:  8.800     to  9.000    
EVT   no.   10 value from time series:   670.78     for time:  8.800     to  9.000    
EVT   no.   11 value from time series:   1341.6     for time:  8.800     to  9.000    
EVT   no.   12 value from time series:   2683.1     for time:  8.800     to  9.000    
EVT   no.   13 value from time series:   4024.7     for time:  8.800     to  9.000    
EVT   no.   14 value from time series:   5366.2     for time:  8.800     to  9.000    
EVT   no.   20 value from time series:   670.78     for time:  8.800     to  9.000    

 OUTPUT CONTROL FOR STRESS PERIOD    5   TIME STEP   10
    PRINT BUDGET
    SAVE BUDGET
    SAVE HEAD
    SAVE HEAD FOR ALL LAYERS
 UBDSV1 SAVING      STORAGE(SS) ON UNIT   1017 AT TIME STEP     10, STRESS PERIOD      5
 UBDSV1 SAVING      STORAGE(SY) ON UNIT   1017 AT TIME STEP     10, STRESS PERIOD      5
 UBDSV1 SAVING FLOW RIGHT FACE  ON UNIT   1017 AT TIME STEP     10, STRESS PERIOD      5
 UBDSV1 SAVING FLOW FRONT FACE  ON UNIT   1017 AT TIME STEP     10, STRESS PERIOD      5
 UBDSV1 SAVING FLOW LOWER FACE  ON UNIT   1017 AT TIME STEP     10, STRESS PERIOD      5
 UBDSV4 SAVING WELLS NEAR RIVER ON UNIT   1017 AT TIME STEP     10, STRESS PERIOD      5

 WELLS NEAR RIVER   PERIOD  5   STEP 10
 BOUNDARY      1   LAYER   2   ROW     8   COL     4   RATE    -17800.0      WELL_2
 BOUNDARY      2   LAYER   2   ROW     3   COL     4   RATE    -30000.0      WELL_1
 UBDSV4 SAVING RIVER            ON UNIT   1017 AT TIME STEP     10, STRESS PERIOD      5

 RIVER              PERIOD  5   STEP 10
 BOUNDARY      1   LAYER   1   ROW     1   COL    15   RATE    -6928.17    
 BOUNDARY      2   LAYER   1   ROW     2   COL    15   RATE    -6910.47      RIV2
 BOUNDARY      3   LAYER   1   ROW     3   COL    15   RATE    -6883.93      RIV3
 BOUNDARY      4   LAYER   1   ROW     4   COL    15   RATE    -6856.27    
 BOUNDARY      5   LAYER   1   ROW     5   COL    15   RATE    -6834.83    
 BOUNDARY      6   LAYER   1   ROW     6   COL    15   RATE    -6834.18    
 BOUNDARY      7   LAYER   1   ROW     7   COL    15   RATE    -6854.80      RIVX
 BOUNDARY      8   LAYER   1   ROW     8   COL    15   RATE    -6885.42      RIVX
 BOUNDARY      9   LAYER   1   ROW     9   COL    15   RATE    -6917.44      RIVX
 BOUNDARY     10   LAYER   1   ROW    10   COL    15   RATE    -6940.29    

 GHB LAKES          PERIOD  5   STEP 10
 BOUNDARY      1   LAYER   1   ROW     3   COL     1   RATE    -8015.75    
 BOUNDARY      2   LAYER   1   ROW     7   COL     1   RATE     4241.74      GHB2_UPPER
 BOUNDARY      3   LAYER   1   ROW     7   COL     1   RATE    -11054.3      GHB2_LOWER
 UBDSV4 SAVING RECHARGE         ON UNIT   1017 AT TIME STEP     10, STRESS PERIOD      5

 RECHARGE           PERIOD  5   STEP 10
 BOUNDARY      2   LAYER   1   ROW     1   COL     2   RATE     750.000    
 BOUNDARY      3   LAYER   1   ROW     1   COL     3   RATE     750.000    
 BOUNDARY      4   LAYER   1   ROW     1   COL     4   RATE     750.000    
 BOUNDARY      5   LAYER   1   ROW     1   COL     5   RATE     750.000    
 BOUNDARY      6   LAYER   1   ROW     1   COL     6   RATE     750.000    
 BOUNDARY      7   LAYER   1   ROW     1   COL     7   RATE     750.000    
 BOUNDARY      8   LAYER   1   ROW     1   COL     8   RATE     750.000    
 BOUNDARY      9   LAYER   1   ROW     1   COL     9   RATE     750.000    
 BOUNDARY     10   LAYER   1   ROW     1   COL    10   RATE     750.000    
 BOUNDARY     11   LAYER   1   ROW     1   COL    11   RATE     750.000    
 BOUNDARY     12   LAYER   1   ROW     1   COL    12   RATE     750.000    
 BOUNDARY     13   LAYER   1   ROW     1   COL    13   RATE     750.000    
 BOUNDARY     14   LAYER   1   ROW     1   COL    14   RATE     750.000    
 BOUNDARY     15   LAYER   1   ROW     1   COL    15   RATE     750.000    
 BOUNDARY     16   LAYER   1   ROW     2   COL     1   RATE     750.000    
 BOUNDARY     17   LAYER   1   ROW     2   COL     2   RATE     750.000    
 BOUNDARY     18   LAYER   1   ROW     2   COL     3   RATE     750.000    
 BOUNDARY     19   LAYER   1   ROW     2   COL     4   RATE     750.000    
 BOUNDARY     20   LAYER   1   ROW     2   COL     5   RATE     750.000    
 BOUNDARY     21   LAYER   1   ROW     2   COL     6   RATE     750.000    
 BOUNDARY     22   LAYER   1   ROW     2   COL     7   RATE     750.000    
 BOUNDARY     23   LAYER   1   ROW     2   COL     8   RATE     750.000    
 BOUNDARY     24   LAYER   1   ROW     2   COL     9   RATE     750.000    
 BOUNDARY     25   LAYER   1   ROW     2   COL    10   RATE     750.000    
 BOUNDARY     26   LAYER   1   ROW     2   COL    11   RATE     750.000    
 BOUNDARY     27   LAYER   1   ROW     2   COL    12   RATE     750.000    
 BOUNDARY     28   LAYER   1   ROW     2   COL    13   RATE     750.000    
 BOUNDARY     29   LAYER   1   ROW     2   COL    14   RATE     750.000    
 BOUNDARY     30   LAYER   1   ROW     2   COL    15   RATE     750.000    
 BOUNDARY     31   LAYER   1   ROW     3   COL     1   RATE     750.000    
 BOUNDARY     32   LAYER   1   ROW     3   COL     2   RATE     750.000    
 BOUNDARY     33   LAYER   1   ROW     3   COL     3   RATE     750.000    
 BOUNDARY     34   LAYER   1   ROW     3   COL     4   RATE     750.000    
 BOUNDARY     35   LAYER   1   ROW     3   COL     5   RATE     750.000    
 BOUNDARY     36   LAYER   1   ROW     3   COL     6   RATE     750.000    
 BOUNDARY     37   LAYER   1   ROW     3   COL     7   RATE     750.000    
 BOUNDARY     38   LAYER   1   ROW     3   COL     8   RATE     750.000    
 BOUNDARY     39   LAYER   1   ROW     3   COL     9   RATE     750.000    
 BOUNDARY     40   LAYER   1   ROW     3   COL    10   RATE     750.000    
 BOUNDARY     41   LAYER   1   ROW     3   COL    11   RATE     750.000    
 BOUNDARY     42   LAYER   1   ROW     3   COL    12   RATE     750.000    
 BOUNDARY     43   LAYER   1   ROW     3   COL    13   RATE     750.000    
 BOUNDARY     44   LAYER   1   ROW     3   COL    14   RATE     750.000    
 BOUNDARY     45   LAYER   1   ROW     3   COL    15   RATE     750.000    
 BOUNDARY     47   LAYER   1   ROW     4   COL     2   RATE     750.000    
 BOUNDARY     48   LAYER   1   ROW     4   COL     3   RATE     750.000    
 BOUNDARY     49   LAYER   1   ROW     4   COL     4   RATE     750.000    
 BOUNDARY     50   LAYER   1   ROW     4   COL     5   RATE     750.000    
 BOUNDARY     51   LAYER   1   ROW     4   COL     6   RATE     750.000    
 BOUNDARY     52   LAYER   1   ROW     4   COL     7   RATE     750.000    
 BOUNDARY     53   LAYER   1   ROW     4   COL     8   RATE     750.000    
 BOUNDARY     54   LAYER   1   ROW     4   COL     9   RATE     750.000    
 BOUNDARY     55   LAYER   1   ROW     4   COL    10   RATE     750.000    
 BOUNDARY     56   LAYER   1   ROW     4   COL    11   RATE     750.000    
 BOUNDARY     57   LAYER   1   ROW     4   COL    12   RATE     750.000    
 BOUNDARY     58   LAYER   1   ROW     4   COL    13   RATE     750.000    
 BOUNDARY     59   LAYER   1   ROW     4   COL    14   RATE     750.000    
 BOUNDARY     60   LAYER   1   ROW     4   COL    15   RATE     750.000    
 BOUNDARY     62   LAYER   1   ROW     5   COL     2   RATE     750.000    
 BOUNDARY     63   LAYER   1   ROW     5   COL     3   RATE     750.000    
 BOUNDARY     64   LAYER   1   ROW     5   COL     4   RATE     750.000    
 BOUNDARY     65   LAYER   1   ROW     5   COL     5   RATE     750.000    
 BOUNDARY     66   LAYER   1   ROW     5   COL     6   RATE     750.000    
 BOUNDARY     67   LAYER   1   ROW     5   COL     7   RATE     750.000    
 BOUNDARY     68   LAYER   1   ROW     5   COL     8   RATE     750.000    
 BOUNDARY     69   LAYER   1   ROW     5   COL     9   RATE     750.000    
 BOUNDARY     70   LAYER   1   ROW     5   COL    10   RATE     750.000    
 BOUNDARY     71   LAYER   1   ROW     5   COL    11   RATE     750.000    
 BOUNDARY     72   LAYER   1   ROW     5   COL    12   RATE     750.000    
 BOUNDARY     73   LAYER   1   ROW     5   COL    13   RATE     750.000    
 BOUNDARY     74   LAYER   1   ROW     5   COL    14   RATE     750.000    
 BOUNDARY     75   LAYER   1   ROW     5   COL    15   RATE     750.000    
 BOUNDARY     77   LAYER   1   ROW     6   COL     2   RATE     750.000    
 BOUNDARY     78   LAYER   1   ROW     6   COL     3   RATE     750.000    
 BOUNDARY     79   LAYER   1   ROW     6   COL     4   RATE     750.000    
 BOUNDARY     80   LAYER   1   ROW     6   COL     5   RATE     750.000    
 BOUNDARY     81   LAYER   1   ROW     6   COL     6   RATE     750.000    
 BOUNDARY     82   LAYER   1   ROW     6   COL     7   RATE     750.000    
 BOUNDARY     83   LAYER   1   ROW     6   COL     8   RATE     750.000    
 BOUNDARY     84   LAYER   1   ROW     6   COL     9   RATE     750.000    
 BOUNDARY     85   LAYER   1   ROW     6   COL    10   RATE     750.000    
 BOUNDARY     86   LAYER   1   ROW     6   COL    11   RATE     750.000    
 BOUNDARY     87   LAYER   1   ROW     6   COL    12   RATE     750.000    
 BOUNDARY     88   LAYER   1   ROW     6   COL    13   RATE     750.000    
 BOUNDARY     89   LAYER   1   ROW     6   COL    14   RATE     750.000    
 BOUNDARY     90   LAYER   1   ROW     6   COL    15   RATE     750.000    
 BOUNDARY     91   LAYER   1   ROW     7   COL     1   RATE     750.000    
 BOUNDARY     92   LAYER   1   ROW     7   COL     2   RATE     750.000    
 BOUNDARY     93   LAYER   1   ROW     7   COL     3   RATE     750.000    
 BOUNDARY     94   LAYER   1   ROW     7   COL     4   RATE     750.000    
 BOUNDARY     95   LAYER   1   ROW     7   COL     5   RATE     750.000    
 BOUNDARY     96   LAYER   1   ROW     7   COL     6   RATE     750.000    
 BOUNDARY     97   LAYER   1   ROW     7   COL     7   RATE     750.000    
 BOUNDARY     98   LAYER   1   ROW     7   COL     8   RATE     750.000    
 BOUNDARY     99   LAYER   1   ROW     7   COL     9   RATE     750.000    
 BOUNDARY    100   LAYER   1   ROW     7   COL    10   RATE     750.000    
 BOUNDARY    101   LAYER   1   ROW     7   COL    11   RATE     750.000    
 BOUNDARY    102   LAYER   1   ROW     7   COL    12   RATE     750.000    
 BOUNDARY    103   LAYER   1   ROW     7   COL    13   RATE     750.000    
 BOUNDARY    104   LAYER   1   ROW     7   COL    14   RATE     750.000    
 BOUNDARY    105   LAYER   1   ROW     7   COL    15   RATE     750.000    
 BOUNDARY    106   LAYER   1   ROW     8   COL     1   RATE     750.000    
 BOUNDARY    107   LAYER   1   ROW     8   COL     2   RATE     750.000    
 BOUNDARY    108   LAYER   1   ROW     8   COL     3   RATE     750.000    
 BOUNDARY    109   LAYER   1   ROW     8   COL     4   RATE     750.000    
 BOUNDARY    110   LAYER   1   ROW     8   COL     5   RATE     750.000    
 BOUNDARY    111   LAYER   1   ROW     8   COL     6   RATE     750.000    
 BOUNDARY    112   LAYER   1   ROW     8   COL     7   RATE     750.000    
 BOUNDARY    113   LAYER   1   ROW     8   COL     8   RATE     750.000    
 BOUNDARY    114   LAYER   1   ROW     8   COL     9   RATE     750.000    
 BOUNDARY    115   LAYER   1   ROW     8   COL    10   RATE     750.000    
 BOUNDARY    116   LAYER   1   ROW     8   COL    11   RATE     750.000    
 BOUNDARY    117   LAYER   1   ROW     8   COL    12   RATE     750.000    
 BOUNDARY    118   LAYER   1   ROW     8   COL    13   RATE     750.000    
 BOUNDARY    119   LAYER   1   ROW     8   COL    14   RATE     750.000    
 BOUNDARY    120   LAYER   1   ROW     8   COL    15   RATE     750.000    
 BOUNDARY    121   LAYER   1   ROW     9   COL     1   RATE     750.000    
 BOUNDARY    122   LAYER   1   ROW     9   COL     2   RATE     750.000    
 BOUNDARY    123   LAYER   1   ROW     9   COL     3   RATE     750.000    
 BOUNDARY    124   LAYER   1   ROW     9   COL     4   RATE     750.000    
 BOUNDARY    125   LAYER   1   ROW     9   COL     5   RATE     750.000    
 BOUNDARY    126   LAYER   1   ROW     9   COL     6   RATE     750.000    
 BOUNDARY    127   LAYER   1   ROW     9   COL     7   RATE     750.000    
 BOUNDARY    128   LAYER   1   ROW     9   COL     8   RATE     750.000    
 BOUNDARY    129   LAYER   1   ROW     9   COL     9   RATE     750.000    
 BOUNDARY    130   LAYER   1   ROW     9   COL    10   RATE     750.000    
 BOUNDARY    131   LAYER   1   ROW     9   COL    11   RATE     750.000    
 BOUNDARY    132   LAYER   1   ROW     9   COL    12   RATE     750.000    
 BOUNDARY    133   LAYER   1   ROW     9   COL    13   RATE     750.000    
 BOUNDARY    134   LAYER   1   ROW     9   COL    14   RATE     750.000    
 BOUNDARY    135   LAYER   1   ROW     9   COL    15   RATE     750.000    
 BOUNDARY    137   LAYER   1   ROW    10   COL     2   RATE     750.000    
 BOUNDARY    138   LAYER   1   ROW    10   COL     3   RATE     750.000    
 BOUNDARY    139   LAYER   1   ROW    10   COL     4   RATE     750.000    
 BOUNDARY    140   LAYER   1   ROW    10   COL     5   RATE     750.000    
 BOUNDARY    141   LAYER   1   ROW    10   COL     6   RATE     750.000    
 BOUNDARY    142   LAYER   1   ROW    10   COL     7   RATE     750.000    
 BOUNDARY    143   LAYER   1   ROW    10   COL     8   RATE     750.000    
 BOUNDARY    144   LAYER   1   ROW    10   COL     9   RATE     750.000    
 BOUNDARY    145   LAYER   1   ROW    10   COL    10   RATE     750.000    
 BOUNDARY    146   LAYER   1   ROW    10   COL    11   RATE     750.000    
 BOUNDARY    147   LAYER   1   ROW    10   COL    12   RATE     750.000    
 BOUNDARY    148   LAYER   1   ROW    10   COL    13   RATE     750.000    
 BOUNDARY    149   LAYER   1   ROW    10   COL    14   RATE     750.000    
 BOUNDARY    150   LAYER   1   ROW    10   COL    15   RATE     750.000    
 UBDSV4 SAVING ET SEGS          ON UNIT   1017 AT TIME STEP     10, STRESS PERIOD      5

 ET SEGS            PERIOD  5   STEP 10
 BOUNDARY      1   LAYER   1   ROW     1   COL    13   RATE    -107.787      ET-1
 BOUNDARY      2   LAYER   1   ROW     2   COL    13   RATE    -204.033      ET-2
 BOUNDARY      3   LAYER   1   ROW     3   COL    13   RATE    -282.688      ET-3
 BOUNDARY      4   LAYER   1   ROW     4   COL    13   RATE    -344.895      ET-4
 BOUNDARY      5   LAYER   1   ROW     5   COL    13   RATE    -294.965      ET-5
 BOUNDARY      6   LAYER   1   ROW     6   COL    13   RATE    -294.132      ET-6
 BOUNDARY      7   LAYER   1   ROW     7   COL    13   RATE    -223.671      ET-7
 BOUNDARY      8   LAYER   1   ROW     8   COL    13   RATE    -176.273      ET-8
 BOUNDARY      9   LAYER   1   ROW     9   COL    13   RATE    -116.309      ET-9
 BOUNDARY     10   LAYER   1   ROW    10   COL    13   RATE    -55.7735      ET-10
 BOUNDARY     11   LAYER   1   ROW     1   COL    12   RATE    -173.665      ET-1
 BOUNDARY     12   LAYER   1   ROW     2   COL    12   RATE    -304.375      ET-2
 BOUNDARY     13   LAYER   1   ROW     3   COL    12   RATE    -392.399      ET-3
 BOUNDARY     14   LAYER   1   ROW     4   COL    12   RATE    -486.477      ET-4
 BOUNDARY     15   LAYER   1   ROW     5   COL    12   RATE    -422.375      ET-5
 BOUNDARY     16   LAYER   1   ROW     6   COL    12   RATE    -421.523      ET-6
 BOUNDARY     17   LAYER   1   ROW     7   COL    12   RATE    -316.140      ET-7
 BOUNDARY     18   LAYER   1   ROW     8   COL    12   RATE    -244.779      ET-8
 BOUNDARY     19   LAYER   1   ROW     9   COL    12   RATE    -178.963      ET-9
 BOUNDARY     20   LAYER   1   ROW    10   COL    12   RATE    -94.2690      ET-10
 UBDSV4 SAVING CONSTANT HEADS   ON UNIT   1017 AT TIME STEP     10, STRESS PERIOD      5

 CONSTANT HEADS     PERIOD  5   STEP 10
 BOUNDARY      1   LAYER   1   ROW     1   COL     1   RATE     2625.61      CHD-1
 BOUNDARY      2   LAYER   1   ROW     4   COL     1   RATE     4720.87    
 BOUNDARY      3   LAYER   1   ROW     5   COL     1   RATE     847.561      CHD_GP
 BOUNDARY      4   LAYER   1   ROW     6   COL     1   RATE     4308.97      CHD_GP
 BOUNDARY      5   LAYER   1   ROW    10   COL     1   RATE     1742.40      CHD-10

 HEAD WILL BE SAVED ON UNIT 1018 AT END OF TIME STEP   10, STRESS PERIOD    5
1
  VOLUME BUDGET FOR ENTIRE MODEL AT END OF TIME STEP   10, STRESS PERIOD   5
  ------------------------------------------------------------------------------

     CUMULATIVE VOLUME      L**3       RATES FOR THIS TIME STEP      L**3/T
     ------------------                 ------------------------

           IN:                                      IN:
           ---                                      ---
         STORAGE(SS) =       81500.7300           STORAGE(SS) =        4568.1679
         STORAGE(SY) =      306205.3807           STORAGE(SY) =       88938.1617
    WELLS NEAR RIVER =           0.0000      WELLS NEAR RIVER =           0.0000
               RIVER =      521888.8807                 RIVER =           0.0000
           GHB LAKES =       39068.5720             GHB LAKES =        4241.7352
            RECHARGE =      877250.0000              RECHARGE =      108750.0000
             ET SEGS =           0.0000               ET SEGS =           0.0000
      CONSTANT HEADS =      128378.8236        CONSTANT HEADS =       14245.4171

            TOTAL IN =     1954292.3869              TOTAL IN =      220743.4819

          OUT:                                     OUT:
          ----                                     ----
         STORAGE(SS) =        2552.3270           STORAGE(SS) =          78.0284
         STORAGE(SY) =     1253459.5591           STORAGE(SY) =       79814.1442
    WELLS NEAR RIVER =      320240.0000      WELLS NEAR RIVER =       47800.0000
               RIVER =      168839.5976                 RIVER =       68845.8059
           GHB LAKES =      170132.5722             GHB LAKES =       19070.0105
            RECHARGE =           0.0000              RECHARGE =           0.0000
             ET SEGS =       39068.3364               ET SEGS =        5135.4930
      CONSTANT HEADS =           0.0000        CONSTANT HEADS =           0.0000

           TOTAL OUT =     1954292.3923             TOTAL OUT =      220743.4819

            IN - OUT =      -5.4016E-03              IN - OUT =       1.0556E-07

 PERCENT DISCREPANCY =          -0.00     PERCENT DISCREPANCY =           0.00






         TIME SUMMARY AT END OF TIME STEP   10 IN STRESS PERIOD    5
                    SECONDS     MINUTES      HOURS       DAYS        YEARS
                    -----------------------------------------------------------
   TIME STEP LENGTH  17280.      288.00      4.8000     0.20000     5.47570E-04
 STRESS PERIOD TIME 1.72800E+05  2880.0      48.000      2.0000     5.47570E-03
         TOTAL TIME 7.77600E+05  12960.      216.00      9.0000     2.46407E-02

 REUSING STORAGE VALUES FROM LAST STRESS PERIOD

 WEL NO.  LAYER   ROW    COL     STRESS RATE  BOUNDARY NAME         VAR1            VAR2            VAR3            
 -------------------------------------------------------------------------------------------------------------------

 REUSING RIVS FROM LAST STRESS PERIOD

 REUSING GHBS FROM LAST STRESS PERIOD

 REUSING RCHS FROM LAST STRESS PERIOD

 REUSING EVTS FROM LAST STRESS PERIOD

 REUSING CHDS FROM LAST STRESS PERIOD
RIV   no.    1 value from time series:   101.95     for time:  9.000     to  9.200    
RIV   no.    2 value from time series:   101.95     for time:  9.000     to  9.200    
RIV   no.    3 value from time series:   101.95     for time:  9.000     to  9.200    
RIV   no.    4 value from time series:   101.95     for time:  9.000     to  9.200    
RIV   no.    5 value from time series:   101.95     for time:  9.000     to  9.200    
RIV   no.    6 value from time series:   101.95     for time:  9.000     to  9.200    
RIV   no.    7 value from time series:   101.95     for time:  9.000     to  9.200    
RIV   no.    8 value from time series:   101.95     for time:  9.000     to  9.200    
RIV   no.    9 value from time series:   101.95     for time:  9.000     to  9.200    
RIV   no.   10 value from time series:   101.95     for time:  9.000     to  9.200    
EVT   no.    1 value from time series:   1329.8     for time:  9.000     to  9.200    
EVT   no.    2 value from time series:   2659.5     for time:  9.000     to  9.200    
EVT   no.    3 value from time series:   3989.2     for time:  9.000     to  9.200    
EVT   no.    4 value from time series:   5319.0     for time:  9.000     to  9.200    
EVT   no.   10 value from time series:   664.88     for time:  9.000     to  9.200    
EVT   no.   11 value from time series:   1329.8     for time:  9.000     to  9.200    
EVT   no.   12 value from time series:   2659.5     for time:  9.000     to  9.200    
EVT   no.   13 value from time series:   3989.2     for time:  9.000     to  9.200    
EVT   no.   14 value from time series:   5319.0     for time:  9.000     to  9.200    
EVT   no.   20 value from time series:   664.88     for time:  9.000     to  9.200    
RIV   no.    1 value from time series:   101.95     for time:  9.000     to  9.200    
RIV   no.    2 value from time series:   101.95     for time:  9.000     to  9.200    
RIV   no.    3 value from time series:   101.95     for time:  9.000     to  9.200    
RIV   no.    4 value from time series:   101.95     for time:  9.000     to  9.200    
RIV   no.    5 value from time series:   101.95     for time:  9.000     to  9.200    
RIV   no.    6 value from time series:   101.95     for time:  9.000     to  9.200    
RIV   no.    7 value from time series:   101.95     for time:  9.000     to  9.200    
RIV   no.    8 value from time series:   101.95     for time:  9.000     to  9.200    
RIV   no.    9 value from time series:   101.95     for time:  9.000     to  9.200    
RIV   no.   10 value from time series:   101.95     for time:  9.000     to  9.200    
EVT   no.    1 value from time series:   1329.8     for time:  9.000     to  9.200    
EVT   no.    2 value from time series:   2659.5     for time:  9.000     to  9.200    
EVT   no.    3 value from time series:   3989.2     for time:  9.000     to  9.200    
EVT   no.    4 value from time series:   5319.0     for time:  9.000     to  9.200    
EVT   no.   10 value from time series:   664.88     for time:  9.000     to  9.200    
EVT   no.   11 value from time series:   1329.8     for time:  9.000     to  9.200    
EVT   no.   12 value from time series:   2659.5     for time:  9.000     to  9.200    
EVT   no.   13 value from time series:   3989.2     for time:  9.000     to  9.200    
EVT   no.   14 value from time series:   5319.0     for time:  9.000     to  9.200    
EVT   no.   20 value from time series:   664.88     for time:  9.000     to  9.200    

 OUTPUT CONTROL FOR STRESS PERIOD    6   TIME STEP    1
    SAVE BUDGET
    SAVE HEAD
    SAVE HEAD FOR ALL LAYERS
 UBDSV1 SAVING      STORAGE(SS) ON UNIT   1017 AT TIME STEP      1, STRESS PERIOD      6
 UBDSV1 SAVING      STORAGE(SY) ON UNIT   1017 AT TIME STEP      1, STRESS PERIOD      6
 UBDSV1 SAVING FLOW RIGHT FACE  ON UNIT   1017 AT TIME STEP      1, STRESS PERIOD      6
 UBDSV1 SAVING FLOW FRONT FACE  ON UNIT   1017 AT TIME STEP      1, STRESS PERIOD      6
 UBDSV1 SAVING FLOW LOWER FACE  ON UNIT   1017 AT TIME STEP      1, STRESS PERIOD      6
 UBDSV4 SAVING WELLS NEAR RIVER ON UNIT   1017 AT TIME STEP      1, STRESS PERIOD      6
 UBDSV4 SAVING RIVER            ON UNIT   1017 AT TIME STEP      1, STRESS PERIOD      6

 RIVER              PERIOD  6   STEP  1
 BOUNDARY      1   LAYER   1   ROW     1   COL    15   RATE    -7236.96    
 BOUNDARY      2   LAYER   1   ROW     2   COL    15   RATE    -7219.24      RIV2
 BOUNDARY      3   LAYER   1   ROW     3   COL    15   RATE    -7192.67      RIV3
 BOUNDARY      4   LAYER   1   ROW     4   COL    15   RATE    -7164.99    
 BOUNDARY      5   LAYER   1   ROW     5   COL    15   RATE    -7143.53    
 BOUNDARY      6   LAYER   1   ROW     6   COL    15   RATE    -7142.89    
 BOUNDARY      7   LAYER   1   ROW     7   COL    15   RATE    -7163.52      RIVX
 BOUNDARY      8   LAYER   1   ROW     8   COL    15   RATE    -7194.17      RIVX
 BOUNDARY      9   LAYER   1   ROW     9   COL    15   RATE    -7226.22      RIVX
 BOUNDARY     10   LAYER   1   ROW    10   COL    15   RATE    -7249.09    

 GHB LAKES          PERIOD  6   STEP  1
 BOUNDARY      1   LAYER   1   ROW     3   COL     1   RATE    -8019.70    
 BOUNDARY      2   LAYER   1   ROW     7   COL     1   RATE     4238.43      GHB2_UPPER
 BOUNDARY      3   LAYER   1   ROW     7   COL     1   RATE    -11055.5      GHB2_LOWER
 UBDSV4 SAVING RECHARGE         ON UNIT   1017 AT TIME STEP      1, STRESS PERIOD      6

 RECHARGE           PERIOD  6   STEP  1
 BOUNDARY      2   LAYER   1   ROW     1   COL     2   RATE     750.000    
 BOUNDARY      3   LAYER   1   ROW     1   COL     3   RATE     750.000    
 BOUNDARY      4   LAYER   1   ROW     1   COL     4   RATE     750.000    
 BOUNDARY      5   LAYER   1   ROW     1   COL     5   RATE     750.000    
 BOUNDARY      6   LAYER   1   ROW     1   COL     6   RATE     750.000    
 BOUNDARY      7   LAYER   1   ROW     1   COL     7   RATE     750.000    
 BOUNDARY      8   LAYER   1   ROW     1   COL     8   RATE     750.000    
 BOUNDARY      9   LAYER   1   ROW     1   COL     9   RATE     750.000    
 BOUNDARY     10   LAYER   1   ROW     1   COL    10   RATE     750.000    
 BOUNDARY     11   LAYER   1   ROW     1   COL    11   RATE     750.000    
 BOUNDARY     12   LAYER   1   ROW     1   COL    12   RATE     750.000    
 BOUNDARY     13   LAYER   1   ROW     1   COL    13   RATE     750.000    
 BOUNDARY     14   LAYER   1   ROW     1   COL    14   RATE     750.000    
 BOUNDARY     15   LAYER   1   ROW     1   COL    15   RATE     750.000    
 BOUNDARY     16   LAYER   1   ROW     2   COL     1   RATE     750.000    
 BOUNDARY     17   LAYER   1   ROW     2   COL     2   RATE     750.000    
 BOUNDARY     18   LAYER   1   ROW     2   COL     3   RATE     750.000    
 BOUNDARY     19   LAYER   1   ROW     2   COL     4   RATE     750.000    
 BOUNDARY     20   LAYER   1   ROW     2   COL     5   RATE     750.000    
 BOUNDARY     21   LAYER   1   ROW     2   COL     6   RATE     750.000    
 BOUNDARY     22   LAYER   1   ROW     2   COL     7   RATE     750.000    
 BOUNDARY     23   LAYER   1   ROW     2   COL     8   RATE     750.000    
 BOUNDARY     24   LAYER   1   ROW     2   COL     9   RATE     750.000    
 BOUNDARY     25   LAYER   1   ROW     2   COL    10   RATE     750.000    
 BOUNDARY     26   LAYER   1   ROW     2   COL    11   RATE     750.000    
 BOUNDARY     27   LAYER   1   ROW     2   COL    12   RATE     750.000    
 BOUNDARY     28   LAYER   1   ROW     2   COL    13   RATE     750.000    
 BOUNDARY     29   LAYER   1   ROW     2   COL    14   RATE     750.000    
 BOUNDARY     30   LAYER   1   ROW     2   COL    15   RATE     750.000    
 BOUNDARY     31   LAYER   1   ROW     3   COL     1   RATE     750.000    
 BOUNDARY     32   LAYER   1   ROW     3   COL     2   RATE     750.000    
 BOUNDARY     33   LAYER   1   ROW     3   COL     3   RATE     750.000    
 BOUNDARY     34   LAYER   1   ROW     3   COL     4   RATE     750.000    
 BOUNDARY     35   LAYER   1   ROW     3   COL     5   RATE     750.000    
 BOUNDARY     36   LAYER   1   ROW     3   COL     6   RATE     750.000    
 BOUNDARY     37   LAYER   1   ROW     3   COL     7   RATE     750.000    
 BOUNDARY     38   LAYER   1   ROW     3   COL     8   RATE     750.000    
 BOUNDARY     39   LAYER   1   ROW     3   COL     9   RATE     750.000    
 BOUNDARY     40   LAYER   1   ROW     3   COL    10   RATE     750.000    
 BOUNDARY     41   LAYER   1   ROW     3   COL    11   RATE     750.000    
 BOUNDARY     42   LAYER   1   ROW     3   COL    12   RATE     750.000    
 BOUNDARY     43   LAYER   1   ROW     3   COL    13   RATE     750.000    
 BOUNDARY     44   LAYER   1   ROW     3   COL    14   RATE     750.000    
 BOUNDARY     45   LAYER   1   ROW     3   COL    15   RATE     750.000    
 BOUNDARY     47   LAYER   1   ROW     4   COL     2   RATE     750.000    
 BOUNDARY     48   LAYER   1   ROW     4   COL     3   RATE     750.000    
 BOUNDARY     49   LAYER   1   ROW     4   COL     4   RATE     750.000    
 BOUNDARY     50   LAYER   1   ROW     4   COL     5   RATE     750.000    
 BOUNDARY     51   LAYER   1   ROW     4   COL     6   RATE     750.000    
 BOUNDARY     52   LAYER   1   ROW     4   COL     7   RATE     750.000    
 BOUNDARY     53   LAYER   1   ROW     4   COL     8   RATE     750.000    
 BOUNDARY     54   LAYER   1   ROW     4   COL     9   RATE     750.000    
 BOUNDARY     55   LAYER   1   ROW     4   COL    10   RATE     750.000    
 BOUNDARY     56   LAYER   1   ROW     4   COL    11   RATE     750.000    
 BOUNDARY     57   LAYER   1   ROW     4   COL    12   RATE     750.000    
 BOUNDARY     58   LAYER   1   ROW     4   COL    13   RATE     750.000    
 BOUNDARY     59   LAYER   1   ROW     4   COL    14   RATE     750.000    
 BOUNDARY     60   LAYER   1   ROW     4   COL    15   RATE     750.000    
 BOUNDARY     62   LAYER   1   ROW     5   COL     2   RATE     750.000    
 BOUNDARY     63   LAYER   1   ROW     5   COL     3   RATE     750.000    
 BOUNDARY     64   LAYER   1   ROW     5   COL     4   RATE     750.000    
 BOUNDARY     65   LAYER   1   ROW     5   COL     5   RATE     750.000    
 BOUNDARY     66   LAYER   1   ROW     5   COL     6   RATE     750.000    
 BOUNDARY     67   LAYER   1   ROW     5   COL     7   RATE     750.000    
 BOUNDARY     68   LAYER   1   ROW     5   COL     8   RATE     750.000    
 BOUNDARY     69   LAYER   1   ROW     5   COL     9   RATE     750.000    
 BOUNDARY     70   LAYER   1   ROW     5   COL    10   RATE     750.000    
 BOUNDARY     71   LAYER   1   ROW     5   COL    11   RATE     750.000    
 BOUNDARY     72   LAYER   1   ROW     5   COL    12   RATE     750.000    
 BOUNDARY     73   LAYER   1   ROW     5   COL    13   RATE     750.000    
 BOUNDARY     74   LAYER   1   ROW     5   COL    14   RATE     750.000    
 BOUNDARY     75   LAYER   1   ROW     5   COL    15   RATE     750.000    
 BOUNDARY     77   LAYER   1   ROW     6   COL     2   RATE     750.000    
 BOUNDARY     78   LAYER   1   ROW     6   COL     3   RATE     750.000    
 BOUNDARY     79   LAYER   1   ROW     6   COL     4   RATE     750.000    
 BOUNDARY     80   LAYER   1   ROW     6   COL     5   RATE     750.000    
 BOUNDARY     81   LAYER   1   ROW     6   COL     6   RATE     750.000    
 BOUNDARY     82   LAYER   1   ROW     6   COL     7   RATE     750.000    
 BOUNDARY     83   LAYER   1   ROW     6   COL     8   RATE     750.000    
 BOUNDARY     84   LAYER   1   ROW     6   COL     9   RATE     750.000    
 BOUNDARY     85   LAYER   1   ROW     6   COL    10   RATE     750.000    
 BOUNDARY     86   LAYER   1   ROW     6   COL    11   RATE     750.000    
 BOUNDARY     87   LAYER   1   ROW     6   COL    12   RATE     750.000    
 BOUNDARY     88   LAYER   1   ROW     6   COL    13   RATE     750.000    
 BOUNDARY     89   LAYER   1   ROW     6   COL    14   RATE     750.000    
 BOUNDARY     90   LAYER   1   ROW     6   COL    15   RATE     750.000    
 BOUNDARY     91   LAYER   1   ROW     7   COL     1   RATE     750.000    
 BOUNDARY     92   LAYER   1   ROW     7   COL     2   RATE     750.000    
 BOUNDARY     93   LAYER   1   ROW     7   COL     3   RATE     750.000    
 BOUNDARY     94   LAYER   1   ROW     7   COL     4   RATE     750.000    
 BOUNDARY     95   LAYER   1   ROW     7   COL     5   RATE     750.000    
 BOUNDARY     96   LAYER   1   ROW     7   COL     6   RATE     750.000    
 BOUNDARY     97   LAYER   1   ROW     7   COL     7   RATE     750.000    
 BOUNDARY     98   LAYER   1   ROW     7   COL     8   RATE     750.000    
 BOUNDARY     99   LAYER   1   ROW     7   COL     9   RATE     750.000    
 BOUNDARY    100   LAYER   1   ROW     7   COL    10   RATE     750.000    
 BOUNDARY    101   LAYER   1   ROW     7   COL    11   RATE     750.000    
 BOUNDARY    102   LAYER   1   ROW     7   COL    12   RATE     750.000    
 BOUNDARY    103   LAYER   1   ROW     7   COL    13   RATE     750.000    
 BOUNDARY    104   LAYER   1   ROW     7   COL    14   RATE     750.000    
 BOUNDARY    105   LAYER   1   ROW     7   COL    15   RATE     750.000    
 BOUNDARY    106   LAYER   1   ROW     8   COL     1   RATE     750.000    
 BOUNDARY    107   LAYER   1   ROW     8   COL     2   RATE     750.000    
 BOUNDARY    108   LAYER   1   ROW     8   COL     3   RATE     750.000    
 BOUNDARY    109   LAYER   1   ROW     8   COL     4   RATE     750.000    
 BOUNDARY    110   LAYER   1   ROW     8   COL     5   RATE     750.000    
 BOUNDARY    111   LAYER   1   ROW     8   COL     6   RATE     750.000    
 BOUNDARY    112   LAYER   1   ROW     8   COL     7   RATE     750.000    
 BOUNDARY    113   LAYER   1   ROW     8   COL     8   RATE     750.000    
 BOUNDARY    114   LAYER   1   ROW     8   COL     9   RATE     750.000    
 BOUNDARY    115   LAYER   1   ROW     8   COL    10   RATE     750.000    
 BOUNDARY    116   LAYER   1   ROW     8   COL    11   RATE     750.000    
 BOUNDARY    117   LAYER   1   ROW     8   COL    12   RATE     750.000    
 BOUNDARY    118   LAYER   1   ROW     8   COL    13   RATE     750.000    
 BOUNDARY    119   LAYER   1   ROW     8   COL    14   RATE     750.000    
 BOUNDARY    120   LAYER   1   ROW     8   COL    15   RATE     750.000    
 BOUNDARY    121   LAYER   1   ROW     9   COL     1   RATE     750.000    
 BOUNDARY    122   LAYER   1   ROW     9   COL     2   RATE     750.000    
 BOUNDARY    123   LAYER   1   ROW     9   COL     3   RATE     750.000    
 BOUNDARY    124   LAYER   1   ROW     9   COL     4   RATE     750.000    
 BOUNDARY    125   LAYER   1   ROW     9   COL     5   RATE     750.000    
 BOUNDARY    126   LAYER   1   ROW     9   COL     6   RATE     750.000    
 BOUNDARY    127   LAYER   1   ROW     9   COL     7   RATE     750.000    
 BOUNDARY    128   LAYER   1   ROW     9   COL     8   RATE     750.000    
 BOUNDARY    129   LAYER   1   ROW     9   COL     9   RATE     750.000    
 BOUNDARY    130   LAYER   1   ROW     9   COL    10   RATE     750.000    
 BOUNDARY    131   LAYER   1   ROW     9   COL    11   RATE     750.000    
 BOUNDARY    132   LAYER   1   ROW     9   COL    12   RATE     750.000    
 BOUNDARY    133   LAYER   1   ROW     9   COL    13   RATE     750.000    
 BOUNDARY    134   LAYER   1   ROW     9   COL    14   RATE     750.000    
 BOUNDARY    135   LAYER   1   ROW     9   COL    15   RATE     750.000    
 BOUNDARY    137   LAYER   1   ROW    10   COL     2   RATE     750.000    
 BOUNDARY    138   LAYER   1   ROW    10   COL     3   RATE     750.000    
 BOUNDARY    139   LAYER   1   ROW    10   COL     4   RATE     750.000    
 BOUNDARY    140   LAYER   1   ROW    10   COL     5   RATE     750.000    
 BOUNDARY    141   LAYER   1   ROW    10   COL     6   RATE     750.000    
 BOUNDARY    142   LAYER   1   ROW    10   COL     7   RATE     750.000    
 BOUNDARY    143   LAYER   1   ROW    10   COL     8   RATE     750.000    
 BOUNDARY    144   LAYER   1   ROW    10   COL     9   RATE     750.000    
 BOUNDARY    145   LAYER   1   ROW    10   COL    10   RATE     750.000    
 BOUNDARY    146   LAYER   1   ROW    10   COL    11   RATE     750.000    
 BOUNDARY    147   LAYER   1   ROW    10   COL    12   RATE     750.000    
 BOUNDARY    148   LAYER   1   ROW    10   COL    13   RATE     750.000    
 BOUNDARY    149   LAYER   1   ROW    10   COL    14   RATE     750.000    
 BOUNDARY    150   LAYER   1   ROW    10   COL    15   RATE     750.000    
 UBDSV4 SAVING ET SEGS          ON UNIT   1017 AT TIME STEP      1, STRESS PERIOD      6

 ET SEGS            PERIOD  6   STEP  1
 BOUNDARY      1   LAYER   1   ROW     1   COL    13   RATE    -106.981      ET-1
 BOUNDARY      2   LAYER   1   ROW     2   COL    13   RATE    -202.506      ET-2
 BOUNDARY      3   LAYER   1   ROW     3   COL    13   RATE    -280.583      ET-3
 BOUNDARY      4   LAYER   1   ROW     4   COL    13   RATE    -342.350      ET-4
 BOUNDARY      5   LAYER   1   ROW     5   COL    13   RATE    -295.524      ET-5
 BOUNDARY      6   LAYER   1   ROW     6   COL    13   RATE    -294.694      ET-6
 BOUNDARY      7   LAYER   1   ROW     7   COL    13   RATE    -224.068      ET-7
 BOUNDARY      8   LAYER   1   ROW     8   COL    13   RATE    -176.558      ET-8
 BOUNDARY      9   LAYER   1   ROW     9   COL    13   RATE    -116.481      ET-9
 BOUNDARY     10   LAYER   1   ROW    10   COL    13   RATE    -55.3568      ET-10
 BOUNDARY     11   LAYER   1   ROW     1   COL    12   RATE    -172.576      ET-1
 BOUNDARY     12   LAYER   1   ROW     2   COL    12   RATE    -302.494      ET-2
 BOUNDARY     13   LAYER   1   ROW     3   COL    12   RATE    -389.288      ET-3
 BOUNDARY     14   LAYER   1   ROW     4   COL    12   RATE    -482.624      ET-4
 BOUNDARY     15   LAYER   1   ROW     5   COL    12   RATE    -422.915      ET-5
 BOUNDARY     16   LAYER   1   ROW     6   COL    12   RATE    -422.067      ET-6
 BOUNDARY     17   LAYER   1   ROW     7   COL    12   RATE    -316.525      ET-7
 BOUNDARY     18   LAYER   1   ROW     8   COL    12   RATE    -245.055      ET-8
 BOUNDARY     19   LAYER   1   ROW     9   COL    12   RATE    -179.507      ET-9
 BOUNDARY     20   LAYER   1   ROW    10   COL    12   RATE    -93.6727      ET-10
 UBDSV4 SAVING CONSTANT HEADS   ON UNIT   1017 AT TIME STEP      1, STRESS PERIOD      6

 CONSTANT HEADS     PERIOD  6   STEP  1
 BOUNDARY      1   LAYER   1   ROW     1   COL     1   RATE     2625.18      CHD-1
 BOUNDARY      2   LAYER   1   ROW     4   COL     1   RATE     4721.08    
 BOUNDARY      3   LAYER   1   ROW     5   COL     1   RATE     848.307      CHD_GP
 BOUNDARY      4   LAYER   1   ROW     6   COL     1   RATE     4309.46      CHD_GP
 BOUNDARY      5   LAYER   1   ROW    10   COL     1   RATE     1742.25      CHD-10

 HEAD WILL BE SAVED ON UNIT 1018 AT END OF TIME STEP    1, STRESS PERIOD    6
RIV   no.    1 value from time series:   101.85     for time:  9.200     to  9.400    
RIV   no.    2 value from time series:   101.85     for time:  9.200     to  9.400    
RIV   no.    3 value from time series:   101.85     for time:  9.200     to  9.400    
RIV   no.    4 value from time series:   101.85     for time:  9.200     to  9.400    
RIV   no.    5 value from time series:   101.85     for time:  9.200     to  9.400    
RIV   no.    6 value from time series:   101.85     for time:  9.200     to  9.400    
RIV   no.    7 value from time series:   101.85     for time:  9.200     to  9.400    
RIV   no.    8 value from time series:   101.85     for time:  9.200     to  9.400    
RIV   no.    9 value from time series:   101.85     for time:  9.200     to  9.400    
RIV   no.   10 value from time series:   101.85     for time:  9.200     to  9.400    
EVT   no.    1 value from time series:   1289.3     for time:  9.200     to  9.400    
EVT   no.    2 value from time series:   2578.5     for time:  9.200     to  9.400    
EVT   no.    3 value from time series:   3867.8     for time:  9.200     to  9.400    
EVT   no.    4 value from time series:   5157.0     for time:  9.200     to  9.400    
EVT   no.   10 value from time series:   644.63     for time:  9.200     to  9.400    
EVT   no.   11 value from time series:   1289.3     for time:  9.200     to  9.400    
EVT   no.   12 value from time series:   2578.5     for time:  9.200     to  9.400    
EVT   no.   13 value from time series:   3867.8     for time:  9.200     to  9.400    
EVT   no.   14 value from time series:   5157.0     for time:  9.200     to  9.400    
EVT   no.   20 value from time series:   644.63     for time:  9.200     to  9.400    
RIV   no.    1 value from time series:   101.85     for time:  9.200     to  9.400    
RIV   no.    2 value from time series:   101.85     for time:  9.200     to  9.400    
RIV   no.    3 value from time series:   101.85     for time:  9.200     to  9.400    
RIV   no.    4 value from time series:   101.85     for time:  9.200     to  9.400    
RIV   no.    5 value from time series:   101.85     for time:  9.200     to  9.400    
RIV   no.    6 value from time series:   101.85     for time:  9.200     to  9.400    
RIV   no.    7 value from time series:   101.85     for time:  9.200     to  9.400    
RIV   no.    8 value from time series:   101.85     for time:  9.200     to  9.400    
RIV   no.    9 value from time series:   101.85     for time:  9.200     to  9.400    
RIV   no.   10 value from time series:   101.85     for time:  9.200     to  9.400    
EVT   no.    1 value from time series:   1289.3     for time:  9.200     to  9.400    
EVT   no.    2 value from time series:   2578.5     for time:  9.200     to  9.400    
EVT   no.    3 value from time series:   3867.8     for time:  9.200     to  9.400    
EVT   no.    4 value from time series:   5157.0     for time:  9.200     to  9.400    
EVT   no.   10 value from time series:   644.63     for time:  9.200     to  9.400    
EVT   no.   11 value from time series:   1289.3     for time:  9.200     to  9.400    
EVT   no.   12 value from time series:   2578.5     for time:  9.200     to  9.400    
EVT   no.   13 value from time series:   3867.8     for time:  9.200     to  9.400    
EVT   no.   14 value from time series:   5157.0     for time:  9.200     to  9.400    
EVT   no.   20 value from time series:   644.63     for time:  9.200     to  9.400    

 OUTPUT CONTROL FOR STRESS PERIOD    6   TIME STEP    2
    SAVE BUDGET
    SAVE HEAD
    SAVE HEAD FOR ALL LAYERS
 UBDSV1 SAVING      STORAGE(SS) ON UNIT   1017 AT TIME STEP      2, STRESS PERIOD      6
 UBDSV1 SAVING      STORAGE(SY) ON UNIT   1017 AT TIME STEP      2, STRESS PERIOD      6
 UBDSV1 SAVING FLOW RIGHT FACE  ON UNIT   1017 AT TIME STEP      2, STRESS PERIOD      6
 UBDSV1 SAVING FLOW FRONT FACE  ON UNIT   1017 AT TIME STEP      2, STRESS PERIOD      6
 UBDSV1 SAVING FLOW LOWER FACE  ON UNIT   1017 AT TIME STEP      2, STRESS PERIOD      6
 UBDSV4 SAVING WELLS NEAR RIVER ON UNIT   1017 AT TIME STEP      2, STRESS PERIOD      6
 UBDSV4 SAVING RIVER            ON UNIT   1017 AT TIME STEP      2, STRESS PERIOD      6

 RIVER              PERIOD  6   STEP  2
 BOUNDARY      1   LAYER   1   ROW     1   COL    15   RATE    -7677.61    
 BOUNDARY      2   LAYER   1   ROW     2   COL    15   RATE    -7659.88      RIV2
 BOUNDARY      3   LAYER   1   ROW     3   COL    15   RATE    -7633.29      RIV3
 BOUNDARY      4   LAYER   1   ROW     4   COL    15   RATE    -7605.59    
 BOUNDARY      5   LAYER   1   ROW     5   COL    15   RATE    -7584.11    
 BOUNDARY      6   LAYER   1   ROW     6   COL    15   RATE    -7583.47    
 BOUNDARY      7   LAYER   1   ROW     7   COL    15   RATE    -7604.12      RIVX
 BOUNDARY      8   LAYER   1   ROW     8   COL    15   RATE    -7634.80      RIVX
 BOUNDARY      9   LAYER   1   ROW     9   COL    15   RATE    -7666.87      RIVX
 BOUNDARY     10   LAYER   1   ROW    10   COL    15   RATE    -7689.76    

 GHB LAKES          PERIOD  6   STEP  2
 BOUNDARY      1   LAYER   1   ROW     3   COL     1   RATE    -8023.59    
 BOUNDARY      2   LAYER   1   ROW     7   COL     1   RATE     4235.19      GHB2_UPPER
 BOUNDARY      3   LAYER   1   ROW     7   COL     1   RATE    -11056.6      GHB2_LOWER
 UBDSV4 SAVING RECHARGE         ON UNIT   1017 AT TIME STEP      2, STRESS PERIOD      6

 RECHARGE           PERIOD  6   STEP  2
 BOUNDARY      2   LAYER   1   ROW     1   COL     2   RATE     750.000    
 BOUNDARY      3   LAYER   1   ROW     1   COL     3   RATE     750.000    
 BOUNDARY      4   LAYER   1   ROW     1   COL     4   RATE     750.000    
 BOUNDARY      5   LAYER   1   ROW     1   COL     5   RATE     750.000    
 BOUNDARY      6   LAYER   1   ROW     1   COL     6   RATE     750.000    
 BOUNDARY      7   LAYER   1   ROW     1   COL     7   RATE     750.000    
 BOUNDARY      8   LAYER   1   ROW     1   COL     8   RATE     750.000    
 BOUNDARY      9   LAYER   1   ROW     1   COL     9   RATE     750.000    
 BOUNDARY     10   LAYER   1   ROW     1   COL    10   RATE     750.000    
 BOUNDARY     11   LAYER   1   ROW     1   COL    11   RATE     750.000    
 BOUNDARY     12   LAYER   1   ROW     1   COL    12   RATE     750.000    
 BOUNDARY     13   LAYER   1   ROW     1   COL    13   RATE     750.000    
 BOUNDARY     14   LAYER   1   ROW     1   COL    14   RATE     750.000    
 BOUNDARY     15   LAYER   1   ROW     1   COL    15   RATE     750.000    
 BOUNDARY     16   LAYER   1   ROW     2   COL     1   RATE     750.000    
 BOUNDARY     17   LAYER   1   ROW     2   COL     2   RATE     750.000    
 BOUNDARY     18   LAYER   1   ROW     2   COL     3   RATE     750.000    
 BOUNDARY     19   LAYER   1   ROW     2   COL     4   RATE     750.000    
 BOUNDARY     20   LAYER   1   ROW     2   COL     5   RATE     750.000    
 BOUNDARY     21   LAYER   1   ROW     2   COL     6   RATE     750.000    
 BOUNDARY     22   LAYER   1   ROW     2   COL     7   RATE     750.000    
 BOUNDARY     23   LAYER   1   ROW     2   COL     8   RATE     750.000    
 BOUNDARY     24   LAYER   1   ROW     2   COL     9   RATE     750.000    
 BOUNDARY     25   LAYER   1   ROW     2   COL    10   RATE     750.000    
 BOUNDARY     26   LAYER   1   ROW     2   COL    11   RATE     750.000    
 BOUNDARY     27   LAYER   1   ROW     2   COL    12   RATE     750.000    
 BOUNDARY     28   LAYER   1   ROW     2   COL    13   RATE     750.000    
 BOUNDARY     29   LAYER   1   ROW     2   COL    14   RATE     750.000    
 BOUNDARY     30   LAYER   1   ROW     2   COL    15   RATE     750.000    
 BOUNDARY     31   LAYER   1   ROW     3   COL     1   RATE     750.000    
 BOUNDARY     32   LAYER   1   ROW     3   COL     2   RATE     750.000    
 BOUNDARY     33   LAYER   1   ROW     3   COL     3   RATE     750.000    
 BOUNDARY     34   LAYER   1   ROW     3   COL     4   RATE     750.000    
 BOUNDARY     35   LAYER   1   ROW     3   COL     5   RATE     750.000    
 BOUNDARY     36   LAYER   1   ROW     3   COL     6   RATE     750.000    
 BOUNDARY     37   LAYER   1   ROW     3   COL     7   RATE     750.000    
 BOUNDARY     38   LAYER   1   ROW     3   COL     8   RATE     750.000    
 BOUNDARY     39   LAYER   1   ROW     3   COL     9   RATE     750.000    
 BOUNDARY     40   LAYER   1   ROW     3   COL    10   RATE     750.000    
 BOUNDARY     41   LAYER   1   ROW     3   COL    11   RATE     750.000    
 BOUNDARY     42   LAYER   1   ROW     3   COL    12   RATE     750.000    
 BOUNDARY     43   LAYER   1   ROW     3   COL    13   RATE     750.000    
 BOUNDARY     44   LAYER   1   ROW     3   COL    14   RATE     750.000    
 BOUNDARY     45   LAYER   1   ROW     3   COL    15   RATE     750.000    
 BOUNDARY     47   LAYER   1   ROW     4   COL     2   RATE     750.000    
 BOUNDARY     48   LAYER   1   ROW     4   COL     3   RATE     750.000    
 BOUNDARY     49   LAYER   1   ROW     4   COL     4   RATE     750.000    
 BOUNDARY     50   LAYER   1   ROW     4   COL     5   RATE     750.000    
 BOUNDARY     51   LAYER   1   ROW     4   COL     6   RATE     750.000    
 BOUNDARY     52   LAYER   1   ROW     4   COL     7   RATE     750.000    
 BOUNDARY     53   LAYER   1   ROW     4   COL     8   RATE     750.000    
 BOUNDARY     54   LAYER   1   ROW     4   COL     9   RATE     750.000    
 BOUNDARY     55   LAYER   1   ROW     4   COL    10   RATE     750.000    
 BOUNDARY     56   LAYER   1   ROW     4   COL    11   RATE     750.000    
 BOUNDARY     57   LAYER   1   ROW     4   COL    12   RATE     750.000    
 BOUNDARY     58   LAYER   1   ROW     4   COL    13   RATE     750.000    
 BOUNDARY     59   LAYER   1   ROW     4   COL    14   RATE     750.000    
 BOUNDARY     60   LAYER   1   ROW     4   COL    15   RATE     750.000    
 BOUNDARY     62   LAYER   1   ROW     5   COL     2   RATE     750.000    
 BOUNDARY     63   LAYER   1   ROW     5   COL     3   RATE     750.000    
 BOUNDARY     64   LAYER   1   ROW     5   COL     4   RATE     750.000    
 BOUNDARY     65   LAYER   1   ROW     5   COL     5   RATE     750.000    
 BOUNDARY     66   LAYER   1   ROW     5   COL     6   RATE     750.000    
 BOUNDARY     67   LAYER   1   ROW     5   COL     7   RATE     750.000    
 BOUNDARY     68   LAYER   1   ROW     5   COL     8   RATE     750.000    
 BOUNDARY     69   LAYER   1   ROW     5   COL     9   RATE     750.000    
 BOUNDARY     70   LAYER   1   ROW     5   COL    10   RATE     750.000    
 BOUNDARY     71   LAYER   1   ROW     5   COL    11   RATE     750.000    
 BOUNDARY     72   LAYER   1   ROW     5   COL    12   RATE     750.000    
 BOUNDARY     73   LAYER   1   ROW     5   COL    13   RATE     750.000    
 BOUNDARY     74   LAYER   1   ROW     5   COL    14   RATE     750.000    
 BOUNDARY     75   LAYER   1   ROW     5   COL    15   RATE     750.000    
 BOUNDARY     77   LAYER   1   ROW     6   COL     2   RATE     750.000    
 BOUNDARY     78   LAYER   1   ROW     6   COL     3   RATE     750.000    
 BOUNDARY     79   LAYER   1   ROW     6   COL     4   RATE     750.000    
 BOUNDARY     80   LAYER   1   ROW     6   COL     5   RATE     750.000    
 BOUNDARY     81   LAYER   1   ROW     6   COL     6   RATE     750.000    
 BOUNDARY     82   LAYER   1   ROW     6   COL     7   RATE     750.000    
 BOUNDARY     83   LAYER   1   ROW     6   COL     8   RATE     750.000    
 BOUNDARY     84   LAYER   1   ROW     6   COL     9   RATE     750.000    
 BOUNDARY     85   LAYER   1   ROW     6   COL    10   RATE     750.000    
 BOUNDARY     86   LAYER   1   ROW     6   COL    11   RATE     750.000    
 BOUNDARY     87   LAYER   1   ROW     6   COL    12   RATE     750.000    
 BOUNDARY     88   LAYER   1   ROW     6   COL    13   RATE     750.000    
 BOUNDARY     89   LAYER   1   ROW     6   COL    14   RATE     750.000    
 BOUNDARY     90   LAYER   1   ROW     6   COL    15   RATE     750.000    
 BOUNDARY     91   LAYER   1   ROW     7   COL     1   RATE     750.000    
 BOUNDARY     92   LAYER   1   ROW     7   COL     2   RATE     750.000    
 BOUNDARY     93   LAYER   1   ROW     7   COL     3   RATE     750.000    
 BOUNDARY     94   LAYER   1   ROW     7   COL     4   RATE     750.000    
 BOUNDARY     95   LAYER   1   ROW     7   COL     5   RATE     750.000    
 BOUNDARY     96   LAYER   1   ROW     7   COL     6   RATE     750.000    
 BOUNDARY     97   LAYER   1   ROW     7   COL     7   RATE     750.000    
 BOUNDARY     98   LAYER   1   ROW     7   COL     8   RATE     750.000    
 BOUNDARY     99   LAYER   1   ROW     7   COL     9   RATE     750.000    
 BOUNDARY    100   LAYER   1   ROW     7   COL    10   RATE     750.000    
 BOUNDARY    101   LAYER   1   ROW     7   COL    11   RATE     750.000    
 BOUNDARY    102   LAYER   1   ROW     7   COL    12   RATE     750.000    
 BOUNDARY    103   LAYER   1   ROW     7   COL    13   RATE     750.000    
 BOUNDARY    104   LAYER   1   ROW     7   COL    14   RATE     750.000    
 BOUNDARY    105   LAYER   1   ROW     7   COL    15   RATE     750.000    
 BOUNDARY    106   LAYER   1   ROW     8   COL     1   RATE     750.000    
 BOUNDARY    107   LAYER   1   ROW     8   COL     2   RATE     750.000    
 BOUNDARY    108   LAYER   1   ROW     8   COL     3   RATE     750.000    
 BOUNDARY    109   LAYER   1   ROW     8   COL     4   RATE     750.000    
 BOUNDARY    110   LAYER   1   ROW     8   COL     5   RATE     750.000    
 BOUNDARY    111   LAYER   1   ROW     8   COL     6   RATE     750.000    
 BOUNDARY    112   LAYER   1   ROW     8   COL     7   RATE     750.000    
 BOUNDARY    113   LAYER   1   ROW     8   COL     8   RATE     750.000    
 BOUNDARY    114   LAYER   1   ROW     8   COL     9   RATE     750.000    
 BOUNDARY    115   LAYER   1   ROW     8   COL    10   RATE     750.000    
 BOUNDARY    116   LAYER   1   ROW     8   COL    11   RATE     750.000    
 BOUNDARY    117   LAYER   1   ROW     8   COL    12   RATE     750.000    
 BOUNDARY    118   LAYER   1   ROW     8   COL    13   RATE     750.000    
 BOUNDARY    119   LAYER   1   ROW     8   COL    14   RATE     750.000    
 BOUNDARY    120   LAYER   1   ROW     8   COL    15   RATE     750.000    
 BOUNDARY    121   LAYER   1   ROW     9   COL     1   RATE     750.000    
 BOUNDARY    122   LAYER   1   ROW     9   COL     2   RATE     750.000    
 BOUNDARY    123   LAYER   1   ROW     9   COL     3   RATE     750.000    
 BOUNDARY    124   LAYER   1   ROW     9   COL     4   RATE     750.000    
 BOUNDARY    125   LAYER   1   ROW     9   COL     5   RATE     750.000    
 BOUNDARY    126   LAYER   1   ROW     9   COL     6   RATE     750.000    
 BOUNDARY    127   LAYER   1   ROW     9   COL     7   RATE     750.000    
 BOUNDARY    128   LAYER   1   ROW     9   COL     8   RATE     750.000    
 BOUNDARY    129   LAYER   1   ROW     9   COL     9   RATE     750.000    
 BOUNDARY    130   LAYER   1   ROW     9   COL    10   RATE     750.000    
 BOUNDARY    131   LAYER   1   ROW     9   COL    11   RATE     750.000    
 BOUNDARY    132   LAYER   1   ROW     9   COL    12   RATE     750.000    
 BOUNDARY    133   LAYER   1   ROW     9   COL    13   RATE     750.000    
 BOUNDARY    134   LAYER   1   ROW     9   COL    14   RATE     750.000    
 BOUNDARY    135   LAYER   1   ROW     9   COL    15   RATE     750.000    
 BOUNDARY    137   LAYER   1   ROW    10   COL     2   RATE     750.000    
 BOUNDARY    138   LAYER   1   ROW    10   COL     3   RATE     750.000    
 BOUNDARY    139   LAYER   1   ROW    10   COL     4   RATE     750.000    
 BOUNDARY    140   LAYER   1   ROW    10   COL     5   RATE     750.000    
 BOUNDARY    141   LAYER   1   ROW    10   COL     6   RATE     750.000    
 BOUNDARY    142   LAYER   1   ROW    10   COL     7   RATE     750.000    
 BOUNDARY    143   LAYER   1   ROW    10   COL     8   RATE     750.000    
 BOUNDARY    144   LAYER   1   ROW    10   COL     9   RATE     750.000    
 BOUNDARY    145   LAYER   1   ROW    10   COL    10   RATE     750.000    
 BOUNDARY    146   LAYER   1   ROW    10   COL    11   RATE     750.000    
 BOUNDARY    147   LAYER   1   ROW    10   COL    12   RATE     750.000    
 BOUNDARY    148   LAYER   1   ROW    10   COL    13   RATE     750.000    
 BOUNDARY    149   LAYER   1   ROW    10   COL    14   RATE     750.000    
 BOUNDARY    150   LAYER   1   ROW    10   COL    15   RATE     750.000    
 UBDSV4 SAVING ET SEGS          ON UNIT   1017 AT TIME STEP      2, STRESS PERIOD      6

 ET SEGS            PERIOD  6   STEP  2
 BOUNDARY      1   LAYER   1   ROW     1   COL    13   RATE    -103.863      ET-1
 BOUNDARY      2   LAYER   1   ROW     2   COL    13   RATE    -196.603      ET-2
 BOUNDARY      3   LAYER   1   ROW     3   COL    13   RATE    -272.415      ET-3
 BOUNDARY      4   LAYER   1   ROW     4   COL    13   RATE    -332.409      ET-4
 BOUNDARY      5   LAYER   1   ROW     5   COL    13   RATE    -296.082      ET-5
 BOUNDARY      6   LAYER   1   ROW     6   COL    13   RATE    -295.255      ET-6
 BOUNDARY      7   LAYER   1   ROW     7   COL    13   RATE    -224.465      ET-7
 BOUNDARY      8   LAYER   1   ROW     8   COL    13   RATE    -176.843      ET-8
 BOUNDARY      9   LAYER   1   ROW     9   COL    13   RATE    -116.653      ET-9
 BOUNDARY     10   LAYER   1   ROW    10   COL    13   RATE    -53.7431      ET-10
 BOUNDARY     11   LAYER   1   ROW     1   COL    12   RATE    -167.750      ET-1
 BOUNDARY     12   LAYER   1   ROW     2   COL    12   RATE    -294.068      ET-2
 BOUNDARY     13   LAYER   1   ROW     3   COL    12   RATE    -377.772      ET-3
 BOUNDARY     14   LAYER   1   ROW     4   COL    12   RATE    -468.355      ET-4
 BOUNDARY     15   LAYER   1   ROW     5   COL    12   RATE    -423.455      ET-5
 BOUNDARY     16   LAYER   1   ROW     6   COL    12   RATE    -422.611      ET-6
 BOUNDARY     17   LAYER   1   ROW     7   COL    12   RATE    -316.909      ET-7
 BOUNDARY     18   LAYER   1   ROW     8   COL    12   RATE    -245.331      ET-8
 BOUNDARY     19   LAYER   1   ROW     9   COL    12   RATE    -180.051      ET-9
 BOUNDARY     20   LAYER   1   ROW    10   COL    12   RATE    -91.0473      ET-10
 UBDSV4 SAVING CONSTANT HEADS   ON UNIT   1017 AT TIME STEP      2, STRESS PERIOD      6

 CONSTANT HEADS     PERIOD  6   STEP  2
 BOUNDARY      1   LAYER   1   ROW     1   COL     1   RATE     2624.70      CHD-1
 BOUNDARY      2   LAYER   1   ROW     4   COL     1   RATE     4721.26    
 BOUNDARY      3   LAYER   1   ROW     5   COL     1   RATE     849.023      CHD_GP
 BOUNDARY      4   LAYER   1   ROW     6   COL     1   RATE     4309.93      CHD_GP
 BOUNDARY      5   LAYER   1   ROW    10   COL     1   RATE     1742.10      CHD-10

 HEAD WILL BE SAVED ON UNIT 1018 AT END OF TIME STEP    2, STRESS PERIOD    6
RIV   no.    1 value from time series:   101.75     for time:  9.400     to  9.600    
RIV   no.    2 value from time series:   101.75     for time:  9.400     to  9.600    
RIV   no.    3 value from time series:   101.75     for time:  9.400     to  9.600    
RIV   no.    4 value from time series:   101.75     for time:  9.400     to  9.600    
RIV   no.    5 value from time series:   101.75     for time:  9.400     to  9.600    
RIV   no.    6 value from time series:   101.75     for time:  9.400     to  9.600    
RIV   no.    7 value from time series:   101.75     for time:  9.400     to  9.600    
RIV   no.    8 value from time series:   101.75     for time:  9.400     to  9.600    
RIV   no.    9 value from time series:   101.75     for time:  9.400     to  9.600    
RIV   no.   10 value from time series:   101.75     for time:  9.400     to  9.600    
EVT   no.    1 value from time series:   1248.8     for time:  9.400     to  9.600    
EVT   no.    2 value from time series:   2497.5     for time:  9.400     to  9.600    
EVT   no.    3 value from time series:   3746.3     for time:  9.400     to  9.600    
EVT   no.    4 value from time series:   4995.0     for time:  9.400     to  9.600    
EVT   no.   10 value from time series:   624.38     for time:  9.400     to  9.600    
EVT   no.   11 value from time series:   1248.8     for time:  9.400     to  9.600    
EVT   no.   12 value from time series:   2497.5     for time:  9.400     to  9.600    
EVT   no.   13 value from time series:   3746.3     for time:  9.400     to  9.600    
EVT   no.   14 value from time series:   4995.0     for time:  9.400     to  9.600    
EVT   no.   20 value from time series:   624.38     for time:  9.400     to  9.600    
RIV   no.    1 value from time series:   101.75     for time:  9.400     to  9.600    
RIV   no.    2 value from time series:   101.75     for time:  9.400     to  9.600    
RIV   no.    3 value from time series:   101.75     for time:  9.400     to  9.600    
RIV   no.    4 value from time series:   101.75     for time:  9.400     to  9.600    
RIV   no.    5 value from time series:   101.75     for time:  9.400     to  9.600    
RIV   no.    6 value from time series:   101.75     for time:  9.400     to  9.600    
RIV   no.    7 value from time series:   101.75     for time:  9.400     to  9.600    
RIV   no.    8 value from time series:   101.75     for time:  9.400     to  9.600    
RIV   no.    9 value from time series:   101.75     for time:  9.400     to  9.600    
RIV   no.   10 value from time series:   101.75     for time:  9.400     to  9.600    
EVT   no.    1 value from time series:   1248.8     for time:  9.400     to  9.600    
EVT   no.    2 value from time series:   2497.5     for time:  9.400     to  9.600    
EVT   no.    3 value from time series:   3746.3     for time:  9.400     to  9.600    
EVT   no.    4 value from time series:   4995.0     for time:  9.400     to  9.600    
EVT   no.   10 value from time series:   624.38     for time:  9.400     to  9.600    
EVT   no.   11 value from time series:   1248.8     for time:  9.400     to  9.600    
EVT   no.   12 value from time series:   2497.5     for time:  9.400     to  9.600    
EVT   no.   13 value from time series:   3746.3     for time:  9.400     to  9.600    
EVT   no.   14 value from time series:   4995.0     for time:  9.400     to  9.600    
EVT   no.   20 value from time series:   624.38     for time:  9.400     to  9.600    

 OUTPUT CONTROL FOR STRESS PERIOD    6   TIME STEP    3
    SAVE BUDGET
    SAVE HEAD
    SAVE HEAD FOR ALL LAYERS
 UBDSV1 SAVING      STORAGE(SS) ON UNIT   1017 AT TIME STEP      3, STRESS PERIOD      6
 UBDSV1 SAVING      STORAGE(SY) ON UNIT   1017 AT TIME STEP      3, STRESS PERIOD      6
 UBDSV1 SAVING FLOW RIGHT FACE  ON UNIT   1017 AT TIME STEP      3, STRESS PERIOD      6
 UBDSV1 SAVING FLOW FRONT FACE  ON UNIT   1017 AT TIME STEP      3, STRESS PERIOD      6
 UBDSV1 SAVING FLOW LOWER FACE  ON UNIT   1017 AT TIME STEP      3, STRESS PERIOD      6
 UBDSV4 SAVING WELLS NEAR RIVER ON UNIT   1017 AT TIME STEP      3, STRESS PERIOD      6
 UBDSV4 SAVING RIVER            ON UNIT   1017 AT TIME STEP      3, STRESS PERIOD      6

 RIVER              PERIOD  6   STEP  3
 BOUNDARY      1   LAYER   1   ROW     1   COL    15   RATE    -8086.16    
 BOUNDARY      2   LAYER   1   ROW     2   COL    15   RATE    -8068.41      RIV2
 BOUNDARY      3   LAYER   1   ROW     3   COL    15   RATE    -8041.79      RIV3
 BOUNDARY      4   LAYER   1   ROW     4   COL    15   RATE    -8014.07    
 BOUNDARY      5   LAYER   1   ROW     5   COL    15   RATE    -7992.59    
 BOUNDARY      6   LAYER   1   ROW     6   COL    15   RATE    -7991.94    
 BOUNDARY      7   LAYER   1   ROW     7   COL    15   RATE    -8012.61      RIVX
 BOUNDARY      8   LAYER   1   ROW     8   COL    15   RATE    -8043.31      RIVX
 BOUNDARY      9   LAYER   1   ROW     9   COL    15   RATE    -8075.41      RIVX
 BOUNDARY     10   LAYER   1   ROW    10   COL    15   RATE    -8098.32    

 GHB LAKES          PERIOD  6   STEP  3
 BOUNDARY      1   LAYER   1   ROW     3   COL     1   RATE    -8027.42    
 BOUNDARY      2   LAYER   1   ROW     7   COL     1   RATE     4232.02      GHB2_UPPER
 BOUNDARY      3   LAYER   1   ROW     7   COL     1   RATE    -11057.7      GHB2_LOWER
 UBDSV4 SAVING RECHARGE         ON UNIT   1017 AT TIME STEP      3, STRESS PERIOD      6

 RECHARGE           PERIOD  6   STEP  3
 BOUNDARY      2   LAYER   1   ROW     1   COL     2   RATE     750.000    
 BOUNDARY      3   LAYER   1   ROW     1   COL     3   RATE     750.000    
 BOUNDARY      4   LAYER   1   ROW     1   COL     4   RATE     750.000    
 BOUNDARY      5   LAYER   1   ROW     1   COL     5   RATE     750.000    
 BOUNDARY      6   LAYER   1   ROW     1   COL     6   RATE     750.000    
 BOUNDARY      7   LAYER   1   ROW     1   COL     7   RATE     750.000    
 BOUNDARY      8   LAYER   1   ROW     1   COL     8   RATE     750.000    
 BOUNDARY      9   LAYER   1   ROW     1   COL     9   RATE     750.000    
 BOUNDARY     10   LAYER   1   ROW     1   COL    10   RATE     750.000    
 BOUNDARY     11   LAYER   1   ROW     1   COL    11   RATE     750.000    
 BOUNDARY     12   LAYER   1   ROW     1   COL    12   RATE     750.000    
 BOUNDARY     13   LAYER   1   ROW     1   COL    13   RATE     750.000    
 BOUNDARY     14   LAYER   1   ROW     1   COL    14   RATE     750.000    
 BOUNDARY     15   LAYER   1   ROW     1   COL    15   RATE     750.000    
 BOUNDARY     16   LAYER   1   ROW     2   COL     1   RATE     750.000    
 BOUNDARY     17   LAYER   1   ROW     2   COL     2   RATE     750.000    
 BOUNDARY     18   LAYER   1   ROW     2   COL     3   RATE     750.000    
 BOUNDARY     19   LAYER   1   ROW     2   COL     4   RATE     750.000    
 BOUNDARY     20   LAYER   1   ROW     2   COL     5   RATE     750.000    
 BOUNDARY     21   LAYER   1   ROW     2   COL     6   RATE     750.000    
 BOUNDARY     22   LAYER   1   ROW     2   COL     7   RATE     750.000    
 BOUNDARY     23   LAYER   1   ROW     2   COL     8   RATE     750.000    
 BOUNDARY     24   LAYER   1   ROW     2   COL     9   RATE     750.000    
 BOUNDARY     25   LAYER   1   ROW     2   COL    10   RATE     750.000    
 BOUNDARY     26   LAYER   1   ROW     2   COL    11   RATE     750.000    
 BOUNDARY     27   LAYER   1   ROW     2   COL    12   RATE     750.000    
 BOUNDARY     28   LAYER   1   ROW     2   COL    13   RATE     750.000    
 BOUNDARY     29   LAYER   1   ROW     2   COL    14   RATE     750.000    
 BOUNDARY     30   LAYER   1   ROW     2   COL    15   RATE     750.000    
 BOUNDARY     31   LAYER   1   ROW     3   COL     1   RATE     750.000    
 BOUNDARY     32   LAYER   1   ROW     3   COL     2   RATE     750.000    
 BOUNDARY     33   LAYER   1   ROW     3   COL     3   RATE     750.000    
 BOUNDARY     34   LAYER   1   ROW     3   COL     4   RATE     750.000    
 BOUNDARY     35   LAYER   1   ROW     3   COL     5   RATE     750.000    
 BOUNDARY     36   LAYER   1   ROW     3   COL     6   RATE     750.000    
 BOUNDARY     37   LAYER   1   ROW     3   COL     7   RATE     750.000    
 BOUNDARY     38   LAYER   1   ROW     3   COL     8   RATE     750.000    
 BOUNDARY     39   LAYER   1   ROW     3   COL     9   RATE     750.000    
 BOUNDARY     40   LAYER   1   ROW     3   COL    10   RATE     750.000    
 BOUNDARY     41   LAYER   1   ROW     3   COL    11   RATE     750.000    
 BOUNDARY     42   LAYER   1   ROW     3   COL    12   RATE     750.000    
 BOUNDARY     43   LAYER   1   ROW     3   COL    13   RATE     750.000    
 BOUNDARY     44   LAYER   1   ROW     3   COL    14   RATE     750.000    
 BOUNDARY     45   LAYER   1   ROW     3   COL    15   RATE     750.000    
 BOUNDARY     47   LAYER   1   ROW     4   COL     2   RATE     750.000    
 BOUNDARY     48   LAYER   1   ROW     4   COL     3   RATE     750.000    
 BOUNDARY     49   LAYER   1   ROW     4   COL     4   RATE     750.000    
 BOUNDARY     50   LAYER   1   ROW     4   COL     5   RATE     750.000    
 BOUNDARY     51   LAYER   1   ROW     4   COL     6   RATE     750.000    
 BOUNDARY     52   LAYER   1   ROW     4   COL     7   RATE     750.000    
 BOUNDARY     53   LAYER   1   ROW     4   COL     8   RATE     750.000    
 BOUNDARY     54   LAYER   1   ROW     4   COL     9   RATE     750.000    
 BOUNDARY     55   LAYER   1   ROW     4   COL    10   RATE     750.000    
 BOUNDARY     56   LAYER   1   ROW     4   COL    11   RATE     750.000    
 BOUNDARY     57   LAYER   1   ROW     4   COL    12   RATE     750.000    
 BOUNDARY     58   LAYER   1   ROW     4   COL    13   RATE     750.000    
 BOUNDARY     59   LAYER   1   ROW     4   COL    14   RATE     750.000    
 BOUNDARY     60   LAYER   1   ROW     4   COL    15   RATE     750.000    
 BOUNDARY     62   LAYER   1   ROW     5   COL     2   RATE     750.000    
 BOUNDARY     63   LAYER   1   ROW     5   COL     3   RATE     750.000    
 BOUNDARY     64   LAYER   1   ROW     5   COL     4   RATE     750.000    
 BOUNDARY     65   LAYER   1   ROW     5   COL     5   RATE     750.000    
 BOUNDARY     66   LAYER   1   ROW     5   COL     6   RATE     750.000    
 BOUNDARY     67   LAYER   1   ROW     5   COL     7   RATE     750.000    
 BOUNDARY     68   LAYER   1   ROW     5   COL     8   RATE     750.000    
 BOUNDARY     69   LAYER   1   ROW     5   COL     9   RATE     750.000    
 BOUNDARY     70   LAYER   1   ROW     5   COL    10   RATE     750.000    
 BOUNDARY     71   LAYER   1   ROW     5   COL    11   RATE     750.000    
 BOUNDARY     72   LAYER   1   ROW     5   COL    12   RATE     750.000    
 BOUNDARY     73   LAYER   1   ROW     5   COL    13   RATE     750.000    
 BOUNDARY     74   LAYER   1   ROW     5   COL    14   RATE     750.000    
 BOUNDARY     75   LAYER   1   ROW     5   COL    15   RATE     750.000    
 BOUNDARY     77   LAYER   1   ROW     6   COL     2   RATE     750.000    
 BOUNDARY     78   LAYER   1   ROW     6   COL     3   RATE     750.000    
 BOUNDARY     79   LAYER   1   ROW     6   COL     4   RATE     750.000    
 BOUNDARY     80   LAYER   1   ROW     6   COL     5   RATE     750.000    
 BOUNDARY     81   LAYER   1   ROW     6   COL     6   RATE     750.000    
 BOUNDARY     82   LAYER   1   ROW     6   COL     7   RATE     750.000    
 BOUNDARY     83   LAYER   1   ROW     6   COL     8   RATE     750.000    
 BOUNDARY     84   LAYER   1   ROW     6   COL     9   RATE     750.000    
 BOUNDARY     85   LAYER   1   ROW     6   COL    10   RATE     750.000    
 BOUNDARY     86   LAYER   1   ROW     6   COL    11   RATE     750.000    
 BOUNDARY     87   LAYER   1   ROW     6   COL    12   RATE     750.000    
 BOUNDARY     88   LAYER   1   ROW     6   COL    13   RATE     750.000    
 BOUNDARY     89   LAYER   1   ROW     6   COL    14   RATE     750.000    
 BOUNDARY     90   LAYER   1   ROW     6   COL    15   RATE     750.000    
 BOUNDARY     91   LAYER   1   ROW     7   COL     1   RATE     750.000    
 BOUNDARY     92   LAYER   1   ROW     7   COL     2   RATE     750.000    
 BOUNDARY     93   LAYER   1   ROW     7   COL     3   RATE     750.000    
 BOUNDARY     94   LAYER   1   ROW     7   COL     4   RATE     750.000    
 BOUNDARY     95   LAYER   1   ROW     7   COL     5   RATE     750.000    
 BOUNDARY     96   LAYER   1   ROW     7   COL     6   RATE     750.000    
 BOUNDARY     97   LAYER   1   ROW     7   COL     7   RATE     750.000    
 BOUNDARY     98   LAYER   1   ROW     7   COL     8   RATE     750.000    
 BOUNDARY     99   LAYER   1   ROW     7   COL     9   RATE     750.000    
 BOUNDARY    100   LAYER   1   ROW     7   COL    10   RATE     750.000    
 BOUNDARY    101   LAYER   1   ROW     7   COL    11   RATE     750.000    
 BOUNDARY    102   LAYER   1   ROW     7   COL    12   RATE     750.000    
 BOUNDARY    103   LAYER   1   ROW     7   COL    13   RATE     750.000    
 BOUNDARY    104   LAYER   1   ROW     7   COL    14   RATE     750.000    
 BOUNDARY    105   LAYER   1   ROW     7   COL    15   RATE     750.000    
 BOUNDARY    106   LAYER   1   ROW     8   COL     1   RATE     750.000    
 BOUNDARY    107   LAYER   1   ROW     8   COL     2   RATE     750.000    
 BOUNDARY    108   LAYER   1   ROW     8   COL     3   RATE     750.000    
 BOUNDARY    109   LAYER   1   ROW     8   COL     4   RATE     750.000    
 BOUNDARY    110   LAYER   1   ROW     8   COL     5   RATE     750.000    
 BOUNDARY    111   LAYER   1   ROW     8   COL     6   RATE     750.000    
 BOUNDARY    112   LAYER   1   ROW     8   COL     7   RATE     750.000    
 BOUNDARY    113   LAYER   1   ROW     8   COL     8   RATE     750.000    
 BOUNDARY    114   LAYER   1   ROW     8   COL     9   RATE     750.000    
 BOUNDARY    115   LAYER   1   ROW     8   COL    10   RATE     750.000    
 BOUNDARY    116   LAYER   1   ROW     8   COL    11   RATE     750.000    
 BOUNDARY    117   LAYER   1   ROW     8   COL    12   RATE     750.000    
 BOUNDARY    118   LAYER   1   ROW     8   COL    13   RATE     750.000    
 BOUNDARY    119   LAYER   1   ROW     8   COL    14   RATE     750.000    
 BOUNDARY    120   LAYER   1   ROW     8   COL    15   RATE     750.000    
 BOUNDARY    121   LAYER   1   ROW     9   COL     1   RATE     750.000    
 BOUNDARY    122   LAYER   1   ROW     9   COL     2   RATE     750.000    
 BOUNDARY    123   LAYER   1   ROW     9   COL     3   RATE     750.000    
 BOUNDARY    124   LAYER   1   ROW     9   COL     4   RATE     750.000    
 BOUNDARY    125   LAYER   1   ROW     9   COL     5   RATE     750.000    
 BOUNDARY    126   LAYER   1   ROW     9   COL     6   RATE     750.000    
 BOUNDARY    127   LAYER   1   ROW     9   COL     7   RATE     750.000    
 BOUNDARY    128   LAYER   1   ROW     9   COL     8   RATE     750.000    
 BOUNDARY    129   LAYER   1   ROW     9   COL     9   RATE     750.000    
 BOUNDARY    130   LAYER   1   ROW     9   COL    10   RATE     750.000    
 BOUNDARY    131   LAYER   1   ROW     9   COL    11   RATE     750.000    
 BOUNDARY    132   LAYER   1   ROW     9   COL    12   RATE     750.000    
 BOUNDARY    133   LAYER   1   ROW     9   COL    13   RATE     750.000    
 BOUNDARY    134   LAYER   1   ROW     9   COL    14   RATE     750.000    
 BOUNDARY    135   LAYER   1   ROW     9   COL    15   RATE     750.000    
 BOUNDARY    137   LAYER   1   ROW    10   COL     2   RATE     750.000    
 BOUNDARY    138   LAYER   1   ROW    10   COL     3   RATE     750.000    
 BOUNDARY    139   LAYER   1   ROW    10   COL     4   RATE     750.000    
 BOUNDARY    140   LAYER   1   ROW    10   COL     5   RATE     750.000    
 BOUNDARY    141   LAYER   1   ROW    10   COL     6   RATE     750.000    
 BOUNDARY    142   LAYER   1   ROW    10   COL     7   RATE     750.000    
 BOUNDARY    143   LAYER   1   ROW    10   COL     8   RATE     750.000    
 BOUNDARY    144   LAYER   1   ROW    10   COL     9   RATE     750.000    
 BOUNDARY    145   LAYER   1   ROW    10   COL    10   RATE     750.000    
 BOUNDARY    146   LAYER   1   ROW    10   COL    11   RATE     750.000    
 BOUNDARY    147   LAYER   1   ROW    10   COL    12   RATE     750.000    
 BOUNDARY    148   LAYER   1   ROW    10   COL    13   RATE     750.000    
 BOUNDARY    149   LAYER   1   ROW    10   COL    14   RATE     750.000    
 BOUNDARY    150   LAYER   1   ROW    10   COL    15   RATE     750.000    
 UBDSV4 SAVING ET SEGS          ON UNIT   1017 AT TIME STEP      3, STRESS PERIOD      6

 ET SEGS            PERIOD  6   STEP  3
 BOUNDARY      1   LAYER   1   ROW     1   COL    13   RATE    -100.736      ET-1
 BOUNDARY      2   LAYER   1   ROW     2   COL    13   RATE    -190.686      ET-2
 BOUNDARY      3   LAYER   1   ROW     3   COL    13   RATE    -264.228      ET-3
 BOUNDARY      4   LAYER   1   ROW     4   COL    13   RATE    -322.446      ET-4
 BOUNDARY      5   LAYER   1   ROW     5   COL    13   RATE    -296.641      ET-5
 BOUNDARY      6   LAYER   1   ROW     6   COL    13   RATE    -295.817      ET-6
 BOUNDARY      7   LAYER   1   ROW     7   COL    13   RATE    -224.861      ET-7
 BOUNDARY      8   LAYER   1   ROW     8   COL    13   RATE    -177.128      ET-8
 BOUNDARY      9   LAYER   1   ROW     9   COL    13   RATE    -116.824      ET-9
 BOUNDARY     10   LAYER   1   ROW    10   COL    13   RATE    -52.1251      ET-10
 BOUNDARY     11   LAYER   1   ROW     1   COL    12   RATE    -162.900      ET-1
 BOUNDARY     12   LAYER   1   ROW     2   COL    12   RATE    -285.604      ET-2
 BOUNDARY     13   LAYER   1   ROW     3   COL    12   RATE    -366.242      ET-3
 BOUNDARY     14   LAYER   1   ROW     4   COL    12   RATE    -454.071      ET-4
 BOUNDARY     15   LAYER   1   ROW     5   COL    12   RATE    -423.994      ET-5
 BOUNDARY     16   LAYER   1   ROW     6   COL    12   RATE    -423.155      ET-6
 BOUNDARY     17   LAYER   1   ROW     7   COL    12   RATE    -317.293      ET-7
 BOUNDARY     18   LAYER   1   ROW     8   COL    12   RATE    -245.607      ET-8
 BOUNDARY     19   LAYER   1   ROW     9   COL    12   RATE    -180.594      ET-9
 BOUNDARY     20   LAYER   1   ROW    10   COL    12   RATE    -88.4085      ET-10
 UBDSV4 SAVING CONSTANT HEADS   ON UNIT   1017 AT TIME STEP      3, STRESS PERIOD      6

 CONSTANT HEADS     PERIOD  6   STEP  3
 BOUNDARY      1   LAYER   1   ROW     1   COL     1   RATE     2624.18      CHD-1
 BOUNDARY      2   LAYER   1   ROW     4   COL     1   RATE     4721.41    
 BOUNDARY      3   LAYER   1   ROW     5   COL     1   RATE     849.708      CHD_GP
 BOUNDARY      4   LAYER   1   ROW     6   COL     1   RATE     4310.37      CHD_GP
 BOUNDARY      5   LAYER   1   ROW    10   COL     1   RATE     1741.93      CHD-10

 HEAD WILL BE SAVED ON UNIT 1018 AT END OF TIME STEP    3, STRESS PERIOD    6
RIV   no.    1 value from time series:   101.65     for time:  9.600     to  9.800    
RIV   no.    2 value from time series:   101.65     for time:  9.600     to  9.800    
RIV   no.    3 value from time series:   101.65     for time:  9.600     to  9.800    
RIV   no.    4 value from time series:   101.65     for time:  9.600     to  9.800    
RIV   no.    5 value from time series:   101.65     for time:  9.600     to  9.800    
RIV   no.    6 value from time series:   101.65     for time:  9.600     to  9.800    
RIV   no.    7 value from time series:   101.65     for time:  9.600     to  9.800    
RIV   no.    8 value from time series:   101.65     for time:  9.600     to  9.800    
RIV   no.    9 value from time series:   101.65     for time:  9.600     to  9.800    
RIV   no.   10 value from time series:   101.65     for time:  9.600     to  9.800    
EVT   no.    1 value from time series:   1208.3     for time:  9.600     to  9.800    
EVT   no.    2 value from time series:   2416.5     for time:  9.600     to  9.800    
EVT   no.    3 value from time series:   3624.8     for time:  9.600     to  9.800    
EVT   no.    4 value from time series:   4833.0     for time:  9.600     to  9.800    
EVT   no.   10 value from time series:   604.13     for time:  9.600     to  9.800    
EVT   no.   11 value from time series:   1208.3     for time:  9.600     to  9.800    
EVT   no.   12 value from time series:   2416.5     for time:  9.600     to  9.800    
EVT   no.   13 value from time series:   3624.8     for time:  9.600     to  9.800    
EVT   no.   14 value from time series:   4833.0     for time:  9.600     to  9.800    
EVT   no.   20 value from time series:   604.13     for time:  9.600     to  9.800    
RIV   no.    1 value from time series:   101.65     for time:  9.600     to  9.800    
RIV   no.    2 value from time series:   101.65     for time:  9.600     to  9.800    
RIV   no.    3 value from time series:   101.65     for time:  9.600     to  9.800    
RIV   no.    4 value from time series:   101.65     for time:  9.600     to  9.800    
RIV   no.    5 value from time series:   101.65     for time:  9.600     to  9.800    
RIV   no.    6 value from time series:   101.65     for time:  9.600     to  9.800    
RIV   no.    7 value from time series:   101.65     for time:  9.600     to  9.800    
RIV   no.    8 value from time series:   101.65     for time:  9.600     to  9.800    
RIV   no.    9 value from time series:   101.65     for time:  9.600     to  9.800    
RIV   no.   10 value from time series:   101.65     for time:  9.600     to  9.800    
EVT   no.    1 value from time series:   1208.3     for time:  9.600     to  9.800    
EVT   no.    2 value from time series:   2416.5     for time:  9.600     to  9.800    
EVT   no.    3 value from time series:   3624.8     for time:  9.600     to  9.800    
EVT   no.    4 value from time series:   4833.0     for time:  9.600     to  9.800    
EVT   no.   10 value from time series:   604.13     for time:  9.600     to  9.800    
EVT   no.   11 value from time series:   1208.3     for time:  9.600     to  9.800    
EVT   no.   12 value from time series:   2416.5     for time:  9.600     to  9.800    
EVT   no.   13 value from time series:   3624.8     for time:  9.600     to  9.800    
EVT   no.   14 value from time series:   4833.0     for time:  9.600     to  9.800    
EVT   no.   20 value from time series:   604.13     for time:  9.600     to  9.800    

 OUTPUT CONTROL FOR STRESS PERIOD    6   TIME STEP    4
    SAVE BUDGET
    SAVE HEAD
    SAVE HEAD FOR ALL LAYERS
 UBDSV1 SAVING      STORAGE(SS) ON UNIT   1017 AT TIME STEP      4, STRESS PERIOD      6
 UBDSV1 SAVING      STORAGE(SY) ON UNIT   1017 AT TIME STEP      4, STRESS PERIOD      6
 UBDSV1 SAVING FLOW RIGHT FACE  ON UNIT   1017 AT TIME STEP      4, STRESS PERIOD      6
 UBDSV1 SAVING FLOW FRONT FACE  ON UNIT   1017 AT TIME STEP      4, STRESS PERIOD      6
 UBDSV1 SAVING FLOW LOWER FACE  ON UNIT   1017 AT TIME STEP      4, STRESS PERIOD      6
 UBDSV4 SAVING WELLS NEAR RIVER ON UNIT   1017 AT TIME STEP      4, STRESS PERIOD      6
 UBDSV4 SAVING RIVER            ON UNIT   1017 AT TIME STEP      4, STRESS PERIOD      6

 RIVER              PERIOD  6   STEP  4
 BOUNDARY      1   LAYER   1   ROW     1   COL    15   RATE    -8465.06    
 BOUNDARY      2   LAYER   1   ROW     2   COL    15   RATE    -8447.30      RIV2
 BOUNDARY      3   LAYER   1   ROW     3   COL    15   RATE    -8420.66      RIV3
 BOUNDARY      4   LAYER   1   ROW     4   COL    15   RATE    -8392.91    
 BOUNDARY      5   LAYER   1   ROW     5   COL    15   RATE    -8371.42    
 BOUNDARY      6   LAYER   1   ROW     6   COL    15   RATE    -8370.77    
 BOUNDARY      7   LAYER   1   ROW     7   COL    15   RATE    -8391.46      RIVX
 BOUNDARY      8   LAYER   1   ROW     8   COL    15   RATE    -8422.19      RIVX
 BOUNDARY      9   LAYER   1   ROW     9   COL    15   RATE    -8454.31      RIVX
 BOUNDARY     10   LAYER   1   ROW    10   COL    15   RATE    -8477.24    

 GHB LAKES          PERIOD  6   STEP  4
 BOUNDARY      1   LAYER   1   ROW     3   COL     1   RATE    -8031.19    
 BOUNDARY      2   LAYER   1   ROW     7   COL     1   RATE     4228.91      GHB2_UPPER
 BOUNDARY      3   LAYER   1   ROW     7   COL     1   RATE    -11058.9      GHB2_LOWER
 UBDSV4 SAVING RECHARGE         ON UNIT   1017 AT TIME STEP      4, STRESS PERIOD      6

 RECHARGE           PERIOD  6   STEP  4
 BOUNDARY      2   LAYER   1   ROW     1   COL     2   RATE     750.000    
 BOUNDARY      3   LAYER   1   ROW     1   COL     3   RATE     750.000    
 BOUNDARY      4   LAYER   1   ROW     1   COL     4   RATE     750.000    
 BOUNDARY      5   LAYER   1   ROW     1   COL     5   RATE     750.000    
 BOUNDARY      6   LAYER   1   ROW     1   COL     6   RATE     750.000    
 BOUNDARY      7   LAYER   1   ROW     1   COL     7   RATE     750.000    
 BOUNDARY      8   LAYER   1   ROW     1   COL     8   RATE     750.000    
 BOUNDARY      9   LAYER   1   ROW     1   COL     9   RATE     750.000    
 BOUNDARY     10   LAYER   1   ROW     1   COL    10   RATE     750.000    
 BOUNDARY     11   LAYER   1   ROW     1   COL    11   RATE     750.000    
 BOUNDARY     12   LAYER   1   ROW     1   COL    12   RATE     750.000    
 BOUNDARY     13   LAYER   1   ROW     1   COL    13   RATE     750.000    
 BOUNDARY     14   LAYER   1   ROW     1   COL    14   RATE     750.000    
 BOUNDARY     15   LAYER   1   ROW     1   COL    15   RATE     750.000    
 BOUNDARY     16   LAYER   1   ROW     2   COL     1   RATE     750.000    
 BOUNDARY     17   LAYER   1   ROW     2   COL     2   RATE     750.000    
 BOUNDARY     18   LAYER   1   ROW     2   COL     3   RATE     750.000    
 BOUNDARY     19   LAYER   1   ROW     2   COL     4   RATE     750.000    
 BOUNDARY     20   LAYER   1   ROW     2   COL     5   RATE     750.000    
 BOUNDARY     21   LAYER   1   ROW     2   COL     6   RATE     750.000    
 BOUNDARY     22   LAYER   1   ROW     2   COL     7   RATE     750.000    
 BOUNDARY     23   LAYER   1   ROW     2   COL     8   RATE     750.000    
 BOUNDARY     24   LAYER   1   ROW     2   COL     9   RATE     750.000    
 BOUNDARY     25   LAYER   1   ROW     2   COL    10   RATE     750.000    
 BOUNDARY     26   LAYER   1   ROW     2   COL    11   RATE     750.000    
 BOUNDARY     27   LAYER   1   ROW     2   COL    12   RATE     750.000    
 BOUNDARY     28   LAYER   1   ROW     2   COL    13   RATE     750.000    
 BOUNDARY     29   LAYER   1   ROW     2   COL    14   RATE     750.000    
 BOUNDARY     30   LAYER   1   ROW     2   COL    15   RATE     750.000    
 BOUNDARY     31   LAYER   1   ROW     3   COL     1   RATE     750.000    
 BOUNDARY     32   LAYER   1   ROW     3   COL     2   RATE     750.000    
 BOUNDARY     33   LAYER   1   ROW     3   COL     3   RATE     750.000    
 BOUNDARY     34   LAYER   1   ROW     3   COL     4   RATE     750.000    
 BOUNDARY     35   LAYER   1   ROW     3   COL     5   RATE     750.000    
 BOUNDARY     36   LAYER   1   ROW     3   COL     6   RATE     750.000    
 BOUNDARY     37   LAYER   1   ROW     3   COL     7   RATE     750.000    
 BOUNDARY     38   LAYER   1   ROW     3   COL     8   RATE     750.000    
 BOUNDARY     39   LAYER   1   ROW     3   COL     9   RATE     750.000    
 BOUNDARY     40   LAYER   1   ROW     3   COL    10   RATE     750.000    
 BOUNDARY     41   LAYER   1   ROW     3   COL    11   RATE     750.000    
 BOUNDARY     42   LAYER   1   ROW     3   COL    12   RATE     750.000    
 BOUNDARY     43   LAYER   1   ROW     3   COL    13   RATE     750.000    
 BOUNDARY     44   LAYER   1   ROW     3   COL    14   RATE     750.000    
 BOUNDARY     45   LAYER   1   ROW     3   COL    15   RATE     750.000    
 BOUNDARY     47   LAYER   1   ROW     4   COL     2   RATE     750.000    
 BOUNDARY     48   LAYER   1   ROW     4   COL     3   RATE     750.000    
 BOUNDARY     49   LAYER   1   ROW     4   COL     4   RATE     750.000    
 BOUNDARY     50   LAYER   1   ROW     4   COL     5   RATE     750.000    
 BOUNDARY     51   LAYER   1   ROW     4   COL     6   RATE     750.000    
 BOUNDARY     52   LAYER   1   ROW     4   COL     7   RATE     750.000    
 BOUNDARY     53   LAYER   1   ROW     4   COL     8   RATE     750.000    
 BOUNDARY     54   LAYER   1   ROW     4   COL     9   RATE     750.000    
 BOUNDARY     55   LAYER   1   ROW     4   COL    10   RATE     750.000    
 BOUNDARY     56   LAYER   1   ROW     4   COL    11   RATE     750.000    
 BOUNDARY     57   LAYER   1   ROW     4   COL    12   RATE     750.000    
 BOUNDARY     58   LAYER   1   ROW     4   COL    13   RATE     750.000    
 BOUNDARY     59   LAYER   1   ROW     4   COL    14   RATE     750.000    
 BOUNDARY     60   LAYER   1   ROW     4   COL    15   RATE     750.000    
 BOUNDARY     62   LAYER   1   ROW     5   COL     2   RATE     750.000    
 BOUNDARY     63   LAYER   1   ROW     5   COL     3   RATE     750.000    
 BOUNDARY     64   LAYER   1   ROW     5   COL     4   RATE     750.000    
 BOUNDARY     65   LAYER   1   ROW     5   COL     5   RATE     750.000    
 BOUNDARY     66   LAYER   1   ROW     5   COL     6   RATE     750.000    
 BOUNDARY     67   LAYER   1   ROW     5   COL     7   RATE     750.000    
 BOUNDARY     68   LAYER   1   ROW     5   COL     8   RATE     750.000    
 BOUNDARY     69   LAYER   1   ROW     5   COL     9   RATE     750.000    
 BOUNDARY     70   LAYER   1   ROW     5   COL    10   RATE     750.000    
 BOUNDARY     71   LAYER   1   ROW     5   COL    11   RATE     750.000    
 BOUNDARY     72   LAYER   1   ROW     5   COL    12   RATE     750.000    
 BOUNDARY     73   LAYER   1   ROW     5   COL    13   RATE     750.000    
 BOUNDARY     74   LAYER   1   ROW     5   COL    14   RATE     750.000    
 BOUNDARY     75   LAYER   1   ROW     5   COL    15   RATE     750.000    
 BOUNDARY     77   LAYER   1   ROW     6   COL     2   RATE     750.000    
 BOUNDARY     78   LAYER   1   ROW     6   COL     3   RATE     750.000    
 BOUNDARY     79   LAYER   1   ROW     6   COL     4   RATE     750.000    
 BOUNDARY     80   LAYER   1   ROW     6   COL     5   RATE     750.000    
 BOUNDARY     81   LAYER   1   ROW     6   COL     6   RATE     750.000    
 BOUNDARY     82   LAYER   1   ROW     6   COL     7   RATE     750.000    
 BOUNDARY     83   LAYER   1   ROW     6   COL     8   RATE     750.000    
 BOUNDARY     84   LAYER   1   ROW     6   COL     9   RATE     750.000    
 BOUNDARY     85   LAYER   1   ROW     6   COL    10   RATE     750.000    
 BOUNDARY     86   LAYER   1   ROW     6   COL    11   RATE     750.000    
 BOUNDARY     87   LAYER   1   ROW     6   COL    12   RATE     750.000    
 BOUNDARY     88   LAYER   1   ROW     6   COL    13   RATE     750.000    
 BOUNDARY     89   LAYER   1   ROW     6   COL    14   RATE     750.000    
 BOUNDARY     90   LAYER   1   ROW     6   COL    15   RATE     750.000    
 BOUNDARY     91   LAYER   1   ROW     7   COL     1   RATE     750.000    
 BOUNDARY     92   LAYER   1   ROW     7   COL     2   RATE     750.000    
 BOUNDARY     93   LAYER   1   ROW     7   COL     3   RATE     750.000    
 BOUNDARY     94   LAYER   1   ROW     7   COL     4   RATE     750.000    
 BOUNDARY     95   LAYER   1   ROW     7   COL     5   RATE     750.000    
 BOUNDARY     96   LAYER   1   ROW     7   COL     6   RATE     750.000    
 BOUNDARY     97   LAYER   1   ROW     7   COL     7   RATE     750.000    
 BOUNDARY     98   LAYER   1   ROW     7   COL     8   RATE     750.000    
 BOUNDARY     99   LAYER   1   ROW     7   COL     9   RATE     750.000    
 BOUNDARY    100   LAYER   1   ROW     7   COL    10   RATE     750.000    
 BOUNDARY    101   LAYER   1   ROW     7   COL    11   RATE     750.000    
 BOUNDARY    102   LAYER   1   ROW     7   COL    12   RATE     750.000    
 BOUNDARY    103   LAYER   1   ROW     7   COL    13   RATE     750.000    
 BOUNDARY    104   LAYER   1   ROW     7   COL    14   RATE     750.000    
 BOUNDARY    105   LAYER   1   ROW     7   COL    15   RATE     750.000    
 BOUNDARY    106   LAYER   1   ROW     8   COL     1   RATE     750.000    
 BOUNDARY    107   LAYER   1   ROW     8   COL     2   RATE     750.000    
 BOUNDARY    108   LAYER   1   ROW     8   COL     3   RATE     750.000    
 BOUNDARY    109   LAYER   1   ROW     8   COL     4   RATE     750.000    
 BOUNDARY    110   LAYER   1   ROW     8   COL     5   RATE     750.000    
 BOUNDARY    111   LAYER   1   ROW     8   COL     6   RATE     750.000    
 BOUNDARY    112   LAYER   1   ROW     8   COL     7   RATE     750.000    
 BOUNDARY    113   LAYER   1   ROW     8   COL     8   RATE     750.000    
 BOUNDARY    114   LAYER   1   ROW     8   COL     9   RATE     750.000    
 BOUNDARY    115   LAYER   1   ROW     8   COL    10   RATE     750.000    
 BOUNDARY    116   LAYER   1   ROW     8   COL    11   RATE     750.000    
 BOUNDARY    117   LAYER   1   ROW     8   COL    12   RATE     750.000    
 BOUNDARY    118   LAYER   1   ROW     8   COL    13   RATE     750.000    
 BOUNDARY    119   LAYER   1   ROW     8   COL    14   RATE     750.000    
 BOUNDARY    120   LAYER   1   ROW     8   COL    15   RATE     750.000    
 BOUNDARY    121   LAYER   1   ROW     9   COL     1   RATE     750.000    
 BOUNDARY    122   LAYER   1   ROW     9   COL     2   RATE     750.000    
 BOUNDARY    123   LAYER   1   ROW     9   COL     3   RATE     750.000    
 BOUNDARY    124   LAYER   1   ROW     9   COL     4   RATE     750.000    
 BOUNDARY    125   LAYER   1   ROW     9   COL     5   RATE     750.000    
 BOUNDARY    126   LAYER   1   ROW     9   COL     6   RATE     750.000    
 BOUNDARY    127   LAYER   1   ROW     9   COL     7   RATE     750.000    
 BOUNDARY    128   LAYER   1   ROW     9   COL     8   RATE     750.000    
 BOUNDARY    129   LAYER   1   ROW     9   COL     9   RATE     750.000    
 BOUNDARY    130   LAYER   1   ROW     9   COL    10   RATE     750.000    
 BOUNDARY    131   LAYER   1   ROW     9   COL    11   RATE     750.000    
 BOUNDARY    132   LAYER   1   ROW     9   COL    12   RATE     750.000    
 BOUNDARY    133   LAYER   1   ROW     9   COL    13   RATE     750.000    
 BOUNDARY    134   LAYER   1   ROW     9   COL    14   RATE     750.000    
 BOUNDARY    135   LAYER   1   ROW     9   COL    15   RATE     750.000    
 BOUNDARY    137   LAYER   1   ROW    10   COL     2   RATE     750.000    
 BOUNDARY    138   LAYER   1   ROW    10   COL     3   RATE     750.000    
 BOUNDARY    139   LAYER   1   ROW    10   COL     4   RATE     750.000    
 BOUNDARY    140   LAYER   1   ROW    10   COL     5   RATE     750.000    
 BOUNDARY    141   LAYER   1   ROW    10   COL     6   RATE     750.000    
 BOUNDARY    142   LAYER   1   ROW    10   COL     7   RATE     750.000    
 BOUNDARY    143   LAYER   1   ROW    10   COL     8   RATE     750.000    
 BOUNDARY    144   LAYER   1   ROW    10   COL     9   RATE     750.000    
 BOUNDARY    145   LAYER   1   ROW    10   COL    10   RATE     750.000    
 BOUNDARY    146   LAYER   1   ROW    10   COL    11   RATE     750.000    
 BOUNDARY    147   LAYER   1   ROW    10   COL    12   RATE     750.000    
 BOUNDARY    148   LAYER   1   ROW    10   COL    13   RATE     750.000    
 BOUNDARY    149   LAYER   1   ROW    10   COL    14   RATE     750.000    
 BOUNDARY    150   LAYER   1   ROW    10   COL    15   RATE     750.000    
 UBDSV4 SAVING ET SEGS          ON UNIT   1017 AT TIME STEP      4, STRESS PERIOD      6

 ET SEGS            PERIOD  6   STEP  4
 BOUNDARY      1   LAYER   1   ROW     1   COL    13   RATE    -97.6017      ET-1
 BOUNDARY      2   LAYER   1   ROW     2   COL    13   RATE    -184.755      ET-2
 BOUNDARY      3   LAYER   1   ROW     3   COL    13   RATE    -256.022      ET-3
 BOUNDARY      4   LAYER   1   ROW     4   COL    13   RATE    -312.460      ET-4
 BOUNDARY      5   LAYER   1   ROW     5   COL    13   RATE    -297.198      ET-5
 BOUNDARY      6   LAYER   1   ROW     6   COL    13   RATE    -296.378      ET-6
 BOUNDARY      7   LAYER   1   ROW     7   COL    13   RATE    -225.257      ET-7
 BOUNDARY      8   LAYER   1   ROW     8   COL    13   RATE    -177.413      ET-8
 BOUNDARY      9   LAYER   1   ROW     9   COL    13   RATE    -116.996      ET-9
 BOUNDARY     10   LAYER   1   ROW    10   COL    13   RATE    -50.5027      ET-10
 BOUNDARY     11   LAYER   1   ROW     1   COL    12   RATE    -158.027      ET-1
 BOUNDARY     12   LAYER   1   ROW     2   COL    12   RATE    -277.101      ET-2
 BOUNDARY     13   LAYER   1   ROW     3   COL    12   RATE    -354.697      ET-3
 BOUNDARY     14   LAYER   1   ROW     4   COL    12   RATE    -439.771      ET-4
 BOUNDARY     15   LAYER   1   ROW     5   COL    12   RATE    -424.533      ET-5
 BOUNDARY     16   LAYER   1   ROW     6   COL    12   RATE    -423.698      ET-6
 BOUNDARY     17   LAYER   1   ROW     7   COL    12   RATE    -317.676      ET-7
 BOUNDARY     18   LAYER   1   ROW     8   COL    12   RATE    -245.883      ET-8
 BOUNDARY     19   LAYER   1   ROW     9   COL    12   RATE    -181.136      ET-9
 BOUNDARY     20   LAYER   1   ROW    10   COL    12   RATE    -85.7562      ET-10
 UBDSV4 SAVING CONSTANT HEADS   ON UNIT   1017 AT TIME STEP      4, STRESS PERIOD      6

 CONSTANT HEADS     PERIOD  6   STEP  4
 BOUNDARY      1   LAYER   1   ROW     1   COL     1   RATE     2623.61      CHD-1
 BOUNDARY      2   LAYER   1   ROW     4   COL     1   RATE     4721.53    
 BOUNDARY      3   LAYER   1   ROW     5   COL     1   RATE     850.360      CHD_GP
 BOUNDARY      4   LAYER   1   ROW     6   COL     1   RATE     4310.78      CHD_GP
 BOUNDARY      5   LAYER   1   ROW    10   COL     1   RATE     1741.75      CHD-10

 HEAD WILL BE SAVED ON UNIT 1018 AT END OF TIME STEP    4, STRESS PERIOD    6
RIV   no.    1 value from time series:   101.55     for time:  9.800     to 10.000    
RIV   no.    2 value from time series:   101.55     for time:  9.800     to 10.000    
RIV   no.    3 value from time series:   101.55     for time:  9.800     to 10.000    
RIV   no.    4 value from time series:   101.55     for time:  9.800     to 10.000    
RIV   no.    5 value from time series:   101.55     for time:  9.800     to 10.000    
RIV   no.    6 value from time series:   101.55     for time:  9.800     to 10.000    
RIV   no.    7 value from time series:   101.55     for time:  9.800     to 10.000    
RIV   no.    8 value from time series:   101.55     for time:  9.800     to 10.000    
RIV   no.    9 value from time series:   101.55     for time:  9.800     to 10.000    
RIV   no.   10 value from time series:   101.55     for time:  9.800     to 10.000    
EVT   no.    1 value from time series:   1167.8     for time:  9.800     to 10.000    
EVT   no.    2 value from time series:   2335.5     for time:  9.800     to 10.000    
EVT   no.    3 value from time series:   3503.3     for time:  9.800     to 10.000    
EVT   no.    4 value from time series:   4671.0     for time:  9.800     to 10.000    
EVT   no.   10 value from time series:   583.88     for time:  9.800     to 10.000    
EVT   no.   11 value from time series:   1167.8     for time:  9.800     to 10.000    
EVT   no.   12 value from time series:   2335.5     for time:  9.800     to 10.000    
EVT   no.   13 value from time series:   3503.3     for time:  9.800     to 10.000    
EVT   no.   14 value from time series:   4671.0     for time:  9.800     to 10.000    
EVT   no.   20 value from time series:   583.88     for time:  9.800     to 10.000    
RIV   no.    1 value from time series:   101.55     for time:  9.800     to 10.000    
RIV   no.    2 value from time series:   101.55     for time:  9.800     to 10.000    
RIV   no.    3 value from time series:   101.55     for time:  9.800     to 10.000    
RIV   no.    4 value from time series:   101.55     for time:  9.800     to 10.000    
RIV   no.    5 value from time series:   101.55     for time:  9.800     to 10.000    
RIV   no.    6 value from time series:   101.55     for time:  9.800     to 10.000    
RIV   no.    7 value from time series:   101.55     for time:  9.800     to 10.000    
RIV   no.    8 value from time series:   101.55     for time:  9.800     to 10.000    
RIV   no.    9 value from time series:   101.55     for time:  9.800     to 10.000    
RIV   no.   10 value from time series:   101.55     for time:  9.800     to 10.000    
EVT   no.    1 value from time series:   1167.8     for time:  9.800     to 10.000    
EVT   no.    2 value from time series:   2335.5     for time:  9.800     to 10.000    
EVT   no.    3 value from time series:   3503.3     for time:  9.800     to 10.000    
EVT   no.    4 value from time series:   4671.0     for time:  9.800     to 10.000    
EVT   no.   10 value from time series:   583.88     for time:  9.800     to 10.000    
EVT   no.   11 value from time series:   1167.8     for time:  9.800     to 10.000    
EVT   no.   12 value from time series:   2335.5     for time:  9.800     to 10.000    
EVT   no.   13 value from time series:   3503.3     for time:  9.800     to 10.000    
EVT   no.   14 value from time series:   4671.0     for time:  9.800     to 10.000    
EVT   no.   20 value from time series:   583.88     for time:  9.800     to 10.000    

 OUTPUT CONTROL FOR STRESS PERIOD    6   TIME STEP    5
    SAVE BUDGET
    SAVE HEAD
    SAVE HEAD FOR ALL LAYERS
 UBDSV1 SAVING      STORAGE(SS) ON UNIT   1017 AT TIME STEP      5, STRESS PERIOD      6
 UBDSV1 SAVING      STORAGE(SY) ON UNIT   1017 AT TIME STEP      5, STRESS PERIOD      6
 UBDSV1 SAVING FLOW RIGHT FACE  ON UNIT   1017 AT TIME STEP      5, STRESS PERIOD      6
 UBDSV1 SAVING FLOW FRONT FACE  ON UNIT   1017 AT TIME STEP      5, STRESS PERIOD      6
 UBDSV1 SAVING FLOW LOWER FACE  ON UNIT   1017 AT TIME STEP      5, STRESS PERIOD      6
 UBDSV4 SAVING WELLS NEAR RIVER ON UNIT   1017 AT TIME STEP      5, STRESS PERIOD      6
 UBDSV4 SAVING RIVER            ON UNIT   1017 AT TIME STEP      5, STRESS PERIOD      6

 RIVER              PERIOD  6   STEP  5
 BOUNDARY      1   LAYER   1   ROW     1   COL    15   RATE    -8816.61    
 BOUNDARY      2   LAYER   1   ROW     2   COL    15   RATE    -8798.83      RIV2
 BOUNDARY      3   LAYER   1   ROW     3   COL    15   RATE    -8772.17      RIV3
 BOUNDARY      4   LAYER   1   ROW     4   COL    15   RATE    -8744.40    
 BOUNDARY      5   LAYER   1   ROW     5   COL    15   RATE    -8722.89    
 BOUNDARY      6   LAYER   1   ROW     6   COL    15   RATE    -8722.25    
 BOUNDARY      7   LAYER   1   ROW     7   COL    15   RATE    -8742.95      RIVX
 BOUNDARY      8   LAYER   1   ROW     8   COL    15   RATE    -8773.70      RIVX
 BOUNDARY      9   LAYER   1   ROW     9   COL    15   RATE    -8805.85      RIVX
 BOUNDARY     10   LAYER   1   ROW    10   COL    15   RATE    -8828.79    

 GHB LAKES          PERIOD  6   STEP  5
 BOUNDARY      1   LAYER   1   ROW     3   COL     1   RATE    -8034.90    
 BOUNDARY      2   LAYER   1   ROW     7   COL     1   RATE     4225.87      GHB2_UPPER
 BOUNDARY      3   LAYER   1   ROW     7   COL     1   RATE    -11060.0      GHB2_LOWER
 UBDSV4 SAVING RECHARGE         ON UNIT   1017 AT TIME STEP      5, STRESS PERIOD      6

 RECHARGE           PERIOD  6   STEP  5
 BOUNDARY      2   LAYER   1   ROW     1   COL     2   RATE     750.000    
 BOUNDARY      3   LAYER   1   ROW     1   COL     3   RATE     750.000    
 BOUNDARY      4   LAYER   1   ROW     1   COL     4   RATE     750.000    
 BOUNDARY      5   LAYER   1   ROW     1   COL     5   RATE     750.000    
 BOUNDARY      6   LAYER   1   ROW     1   COL     6   RATE     750.000    
 BOUNDARY      7   LAYER   1   ROW     1   COL     7   RATE     750.000    
 BOUNDARY      8   LAYER   1   ROW     1   COL     8   RATE     750.000    
 BOUNDARY      9   LAYER   1   ROW     1   COL     9   RATE     750.000    
 BOUNDARY     10   LAYER   1   ROW     1   COL    10   RATE     750.000    
 BOUNDARY     11   LAYER   1   ROW     1   COL    11   RATE     750.000    
 BOUNDARY     12   LAYER   1   ROW     1   COL    12   RATE     750.000    
 BOUNDARY     13   LAYER   1   ROW     1   COL    13   RATE     750.000    
 BOUNDARY     14   LAYER   1   ROW     1   COL    14   RATE     750.000    
 BOUNDARY     15   LAYER   1   ROW     1   COL    15   RATE     750.000    
 BOUNDARY     16   LAYER   1   ROW     2   COL     1   RATE     750.000    
 BOUNDARY     17   LAYER   1   ROW     2   COL     2   RATE     750.000    
 BOUNDARY     18   LAYER   1   ROW     2   COL     3   RATE     750.000    
 BOUNDARY     19   LAYER   1   ROW     2   COL     4   RATE     750.000    
 BOUNDARY     20   LAYER   1   ROW     2   COL     5   RATE     750.000    
 BOUNDARY     21   LAYER   1   ROW     2   COL     6   RATE     750.000    
 BOUNDARY     22   LAYER   1   ROW     2   COL     7   RATE     750.000    
 BOUNDARY     23   LAYER   1   ROW     2   COL     8   RATE     750.000    
 BOUNDARY     24   LAYER   1   ROW     2   COL     9   RATE     750.000    
 BOUNDARY     25   LAYER   1   ROW     2   COL    10   RATE     750.000    
 BOUNDARY     26   LAYER   1   ROW     2   COL    11   RATE     750.000    
 BOUNDARY     27   LAYER   1   ROW     2   COL    12   RATE     750.000    
 BOUNDARY     28   LAYER   1   ROW     2   COL    13   RATE     750.000    
 BOUNDARY     29   LAYER   1   ROW     2   COL    14   RATE     750.000    
 BOUNDARY     30   LAYER   1   ROW     2   COL    15   RATE     750.000    
 BOUNDARY     31   LAYER   1   ROW     3   COL     1   RATE     750.000    
 BOUNDARY     32   LAYER   1   ROW     3   COL     2   RATE     750.000    
 BOUNDARY     33   LAYER   1   ROW     3   COL     3   RATE     750.000    
 BOUNDARY     34   LAYER   1   ROW     3   COL     4   RATE     750.000    
 BOUNDARY     35   LAYER   1   ROW     3   COL     5   RATE     750.000    
 BOUNDARY     36   LAYER   1   ROW     3   COL     6   RATE     750.000    
 BOUNDARY     37   LAYER   1   ROW     3   COL     7   RATE     750.000    
 BOUNDARY     38   LAYER   1   ROW     3   COL     8   RATE     750.000    
 BOUNDARY     39   LAYER   1   ROW     3   COL     9   RATE     750.000    
 BOUNDARY     40   LAYER   1   ROW     3   COL    10   RATE     750.000    
 BOUNDARY     41   LAYER   1   ROW     3   COL    11   RATE     750.000    
 BOUNDARY     42   LAYER   1   ROW     3   COL    12   RATE     750.000    
 BOUNDARY     43   LAYER   1   ROW     3   COL    13   RATE     750.000    
 BOUNDARY     44   LAYER   1   ROW     3   COL    14   RATE     750.000    
 BOUNDARY     45   LAYER   1   ROW     3   COL    15   RATE     750.000    
 BOUNDARY     47   LAYER   1   ROW     4   COL     2   RATE     750.000    
 BOUNDARY     48   LAYER   1   ROW     4   COL     3   RATE     750.000    
 BOUNDARY     49   LAYER   1   ROW     4   COL     4   RATE     750.000    
 BOUNDARY     50   LAYER   1   ROW     4   COL     5   RATE     750.000    
 BOUNDARY     51   LAYER   1   ROW     4   COL     6   RATE     750.000    
 BOUNDARY     52   LAYER   1   ROW     4   COL     7   RATE     750.000    
 BOUNDARY     53   LAYER   1   ROW     4   COL     8   RATE     750.000    
 BOUNDARY     54   LAYER   1   ROW     4   COL     9   RATE     750.000    
 BOUNDARY     55   LAYER   1   ROW     4   COL    10   RATE     750.000    
 BOUNDARY     56   LAYER   1   ROW     4   COL    11   RATE     750.000    
 BOUNDARY     57   LAYER   1   ROW     4   COL    12   RATE     750.000    
 BOUNDARY     58   LAYER   1   ROW     4   COL    13   RATE     750.000    
 BOUNDARY     59   LAYER   1   ROW     4   COL    14   RATE     750.000    
 BOUNDARY     60   LAYER   1   ROW     4   COL    15   RATE     750.000    
 BOUNDARY     62   LAYER   1   ROW     5   COL     2   RATE     750.000    
 BOUNDARY     63   LAYER   1   ROW     5   COL     3   RATE     750.000    
 BOUNDARY     64   LAYER   1   ROW     5   COL     4   RATE     750.000    
 BOUNDARY     65   LAYER   1   ROW     5   COL     5   RATE     750.000    
 BOUNDARY     66   LAYER   1   ROW     5   COL     6   RATE     750.000    
 BOUNDARY     67   LAYER   1   ROW     5   COL     7   RATE     750.000    
 BOUNDARY     68   LAYER   1   ROW     5   COL     8   RATE     750.000    
 BOUNDARY     69   LAYER   1   ROW     5   COL     9   RATE     750.000    
 BOUNDARY     70   LAYER   1   ROW     5   COL    10   RATE     750.000    
 BOUNDARY     71   LAYER   1   ROW     5   COL    11   RATE     750.000    
 BOUNDARY     72   LAYER   1   ROW     5   COL    12   RATE     750.000    
 BOUNDARY     73   LAYER   1   ROW     5   COL    13   RATE     750.000    
 BOUNDARY     74   LAYER   1   ROW     5   COL    14   RATE     750.000    
 BOUNDARY     75   LAYER   1   ROW     5   COL    15   RATE     750.000    
 BOUNDARY     77   LAYER   1   ROW     6   COL     2   RATE     750.000    
 BOUNDARY     78   LAYER   1   ROW     6   COL     3   RATE     750.000    
 BOUNDARY     79   LAYER   1   ROW     6   COL     4   RATE     750.000    
 BOUNDARY     80   LAYER   1   ROW     6   COL     5   RATE     750.000    
 BOUNDARY     81   LAYER   1   ROW     6   COL     6   RATE     750.000    
 BOUNDARY     82   LAYER   1   ROW     6   COL     7   RATE     750.000    
 BOUNDARY     83   LAYER   1   ROW     6   COL     8   RATE     750.000    
 BOUNDARY     84   LAYER   1   ROW     6   COL     9   RATE     750.000    
 BOUNDARY     85   LAYER   1   ROW     6   COL    10   RATE     750.000    
 BOUNDARY     86   LAYER   1   ROW     6   COL    11   RATE     750.000    
 BOUNDARY     87   LAYER   1   ROW     6   COL    12   RATE     750.000    
 BOUNDARY     88   LAYER   1   ROW     6   COL    13   RATE     750.000    
 BOUNDARY     89   LAYER   1   ROW     6   COL    14   RATE     750.000    
 BOUNDARY     90   LAYER   1   ROW     6   COL    15   RATE     750.000    
 BOUNDARY     91   LAYER   1   ROW     7   COL     1   RATE     750.000    
 BOUNDARY     92   LAYER   1   ROW     7   COL     2   RATE     750.000    
 BOUNDARY     93   LAYER   1   ROW     7   COL     3   RATE     750.000    
 BOUNDARY     94   LAYER   1   ROW     7   COL     4   RATE     750.000    
 BOUNDARY     95   LAYER   1   ROW     7   COL     5   RATE     750.000    
 BOUNDARY     96   LAYER   1   ROW     7   COL     6   RATE     750.000    
 BOUNDARY     97   LAYER   1   ROW     7   COL     7   RATE     750.000    
 BOUNDARY     98   LAYER   1   ROW     7   COL     8   RATE     750.000    
 BOUNDARY     99   LAYER   1   ROW     7   COL     9   RATE     750.000    
 BOUNDARY    100   LAYER   1   ROW     7   COL    10   RATE     750.000    
 BOUNDARY    101   LAYER   1   ROW     7   COL    11   RATE     750.000    
 BOUNDARY    102   LAYER   1   ROW     7   COL    12   RATE     750.000    
 BOUNDARY    103   LAYER   1   ROW     7   COL    13   RATE     750.000    
 BOUNDARY    104   LAYER   1   ROW     7   COL    14   RATE     750.000    
 BOUNDARY    105   LAYER   1   ROW     7   COL    15   RATE     750.000    
 BOUNDARY    106   LAYER   1   ROW     8   COL     1   RATE     750.000    
 BOUNDARY    107   LAYER   1   ROW     8   COL     2   RATE     750.000    
 BOUNDARY    108   LAYER   1   ROW     8   COL     3   RATE     750.000    
 BOUNDARY    109   LAYER   1   ROW     8   COL     4   RATE     750.000    
 BOUNDARY    110   LAYER   1   ROW     8   COL     5   RATE     750.000    
 BOUNDARY    111   LAYER   1   ROW     8   COL     6   RATE     750.000    
 BOUNDARY    112   LAYER   1   ROW     8   COL     7   RATE     750.000    
 BOUNDARY    113   LAYER   1   ROW     8   COL     8   RATE     750.000    
 BOUNDARY    114   LAYER   1   ROW     8   COL     9   RATE     750.000    
 BOUNDARY    115   LAYER   1   ROW     8   COL    10   RATE     750.000    
 BOUNDARY    116   LAYER   1   ROW     8   COL    11   RATE     750.000    
 BOUNDARY    117   LAYER   1   ROW     8   COL    12   RATE     750.000    
 BOUNDARY    118   LAYER   1   ROW     8   COL    13   RATE     750.000    
 BOUNDARY    119   LAYER   1   ROW     8   COL    14   RATE     750.000    
 BOUNDARY    120   LAYER   1   ROW     8   COL    15   RATE     750.000    
 BOUNDARY    121   LAYER   1   ROW     9   COL     1   RATE     750.000    
 BOUNDARY    122   LAYER   1   ROW     9   COL     2   RATE     750.000    
 BOUNDARY    123   LAYER   1   ROW     9   COL     3   RATE     750.000    
 BOUNDARY    124   LAYER   1   ROW     9   COL     4   RATE     750.000    
 BOUNDARY    125   LAYER   1   ROW     9   COL     5   RATE     750.000    
 BOUNDARY    126   LAYER   1   ROW     9   COL     6   RATE     750.000    
 BOUNDARY    127   LAYER   1   ROW     9   COL     7   RATE     750.000    
 BOUNDARY    128   LAYER   1   ROW     9   COL     8   RATE     750.000    
 BOUNDARY    129   LAYER   1   ROW     9   COL     9   RATE     750.000    
 BOUNDARY    130   LAYER   1   ROW     9   COL    10   RATE     750.000    
 BOUNDARY    131   LAYER   1   ROW     9   COL    11   RATE     750.000    
 BOUNDARY    132   LAYER   1   ROW     9   COL    12   RATE     750.000    
 BOUNDARY    133   LAYER   1   ROW     9   COL    13   RATE     750.000    
 BOUNDARY    134   LAYER   1   ROW     9   COL    14   RATE     750.000    
 BOUNDARY    135   LAYER   1   ROW     9   COL    15   RATE     750.000    
 BOUNDARY    137   LAYER   1   ROW    10   COL     2   RATE     750.000    
 BOUNDARY    138   LAYER   1   ROW    10   COL     3   RATE     750.000    
 BOUNDARY    139   LAYER   1   ROW    10   COL     4   RATE     750.000    
 BOUNDARY    140   LAYER   1   ROW    10   COL     5   RATE     750.000    
 BOUNDARY    141   LAYER   1   ROW    10   COL     6   RATE     750.000    
 BOUNDARY    142   LAYER   1   ROW    10   COL     7   RATE     750.000    
 BOUNDARY    143   LAYER   1   ROW    10   COL     8   RATE     750.000    
 BOUNDARY    144   LAYER   1   ROW    10   COL     9   RATE     750.000    
 BOUNDARY    145   LAYER   1   ROW    10   COL    10   RATE     750.000    
 BOUNDARY    146   LAYER   1   ROW    10   COL    11   RATE     750.000    
 BOUNDARY    147   LAYER   1   ROW    10   COL    12   RATE     750.000    
 BOUNDARY    148   LAYER   1   ROW    10   COL    13   RATE     750.000    
 BOUNDARY    149   LAYER   1   ROW    10   COL    14   RATE     750.000    
 BOUNDARY    150   LAYER   1   ROW    10   COL    15   RATE     750.000    
 UBDSV4 SAVING ET SEGS          ON UNIT   1017 AT TIME STEP      5, STRESS PERIOD      6

 ET SEGS            PERIOD  6   STEP  5
 BOUNDARY      1   LAYER   1   ROW     1   COL    13   RATE    -94.4588      ET-1
 BOUNDARY      2   LAYER   1   ROW     2   COL    13   RATE    -178.808      ET-2
 BOUNDARY      3   LAYER   1   ROW     3   COL    13   RATE    -247.797      ET-3
 BOUNDARY      4   LAYER   1   ROW     4   COL    13   RATE    -302.450      ET-4
 BOUNDARY      5   LAYER   1   ROW     5   COL    13   RATE    -297.756      ET-5
 BOUNDARY      6   LAYER   1   ROW     6   COL    13   RATE    -296.939      ET-6
 BOUNDARY      7   LAYER   1   ROW     7   COL    13   RATE    -225.654      ET-7
 BOUNDARY      8   LAYER   1   ROW     8   COL    13   RATE    -177.698      ET-8
 BOUNDARY      9   LAYER   1   ROW     9   COL    13   RATE    -117.168      ET-9
 BOUNDARY     10   LAYER   1   ROW    10   COL    13   RATE    -48.8759      ET-10
 BOUNDARY     11   LAYER   1   ROW     1   COL    12   RATE    -153.129      ET-1
 BOUNDARY     12   LAYER   1   ROW     2   COL    12   RATE    -268.558      ET-2
 BOUNDARY     13   LAYER   1   ROW     3   COL    12   RATE    -343.137      ET-3
 BOUNDARY     14   LAYER   1   ROW     4   COL    12   RATE    -425.453      ET-4
 BOUNDARY     15   LAYER   1   ROW     5   COL    12   RATE    -425.071      ET-5
 BOUNDARY     16   LAYER   1   ROW     6   COL    12   RATE    -424.241      ET-6
 BOUNDARY     17   LAYER   1   ROW     7   COL    12   RATE    -318.060      ET-7
 BOUNDARY     18   LAYER   1   ROW     8   COL    12   RATE    -246.158      ET-8
 BOUNDARY     19   LAYER   1   ROW     9   COL    12   RATE    -181.679      ET-9
 BOUNDARY     20   LAYER   1   ROW    10   COL    12   RATE    -83.0904      ET-10
 UBDSV4 SAVING CONSTANT HEADS   ON UNIT   1017 AT TIME STEP      5, STRESS PERIOD      6

 CONSTANT HEADS     PERIOD  6   STEP  5
 BOUNDARY      1   LAYER   1   ROW     1   COL     1   RATE     2623.00      CHD-1
 BOUNDARY      2   LAYER   1   ROW     4   COL     1   RATE     4721.61    
 BOUNDARY      3   LAYER   1   ROW     5   COL     1   RATE     850.976      CHD_GP
 BOUNDARY      4   LAYER   1   ROW     6   COL     1   RATE     4311.15      CHD_GP
 BOUNDARY      5   LAYER   1   ROW    10   COL     1   RATE     1741.54      CHD-10

 HEAD WILL BE SAVED ON UNIT 1018 AT END OF TIME STEP    5, STRESS PERIOD    6
RIV   no.    1 value from time series:   101.45     for time: 10.000     to  10.20    
RIV   no.    2 value from time series:   101.45     for time: 10.000     to  10.20    
RIV   no.    3 value from time series:   101.45     for time: 10.000     to  10.20    
RIV   no.    4 value from time series:   101.45     for time: 10.000     to  10.20    
RIV   no.    5 value from time series:   101.45     for time: 10.000     to  10.20    
RIV   no.    6 value from time series:   101.45     for time: 10.000     to  10.20    
RIV   no.    7 value from time series:   101.45     for time: 10.000     to  10.20    
RIV   no.    8 value from time series:   101.45     for time: 10.000     to  10.20    
RIV   no.    9 value from time series:   101.45     for time: 10.000     to  10.20    
RIV   no.   10 value from time series:   101.45     for time: 10.000     to  10.20    
EVT   no.    1 value from time series:   1127.3     for time: 10.000     to  10.20    
EVT   no.    2 value from time series:   2254.5     for time: 10.000     to  10.20    
EVT   no.    3 value from time series:   3381.8     for time: 10.000     to  10.20    
EVT   no.    4 value from time series:   4509.0     for time: 10.000     to  10.20    
EVT   no.   10 value from time series:   563.63     for time: 10.000     to  10.20    
EVT   no.   11 value from time series:   1127.3     for time: 10.000     to  10.20    
EVT   no.   12 value from time series:   2254.5     for time: 10.000     to  10.20    
EVT   no.   13 value from time series:   3381.8     for time: 10.000     to  10.20    
EVT   no.   14 value from time series:   4509.0     for time: 10.000     to  10.20    
EVT   no.   20 value from time series:   563.63     for time: 10.000     to  10.20    
RIV   no.    1 value from time series:   101.45     for time: 10.000     to  10.20    
RIV   no.    2 value from time series:   101.45     for time: 10.000     to  10.20    
RIV   no.    3 value from time series:   101.45     for time: 10.000     to  10.20    
RIV   no.    4 value from time series:   101.45     for time: 10.000     to  10.20    
RIV   no.    5 value from time series:   101.45     for time: 10.000     to  10.20    
RIV   no.    6 value from time series:   101.45     for time: 10.000     to  10.20    
RIV   no.    7 value from time series:   101.45     for time: 10.000     to  10.20    
RIV   no.    8 value from time series:   101.45     for time: 10.000     to  10.20    
RIV   no.    9 value from time series:   101.45     for time: 10.000     to  10.20    
RIV   no.   10 value from time series:   101.45     for time: 10.000     to  10.20    
EVT   no.    1 value from time series:   1127.3     for time: 10.000     to  10.20    
EVT   no.    2 value from time series:   2254.5     for time: 10.000     to  10.20    
EVT   no.    3 value from time series:   3381.8     for time: 10.000     to  10.20    
EVT   no.    4 value from time series:   4509.0     for time: 10.000     to  10.20    
EVT   no.   10 value from time series:   563.63     for time: 10.000     to  10.20    
EVT   no.   11 value from time series:   1127.3     for time: 10.000     to  10.20    
EVT   no.   12 value from time series:   2254.5     for time: 10.000     to  10.20    
EVT   no.   13 value from time series:   3381.8     for time: 10.000     to  10.20    
EVT   no.   14 value from time series:   4509.0     for time: 10.000     to  10.20    
EVT   no.   20 value from time series:   563.63     for time: 10.000     to  10.20    

 OUTPUT CONTROL FOR STRESS PERIOD    6   TIME STEP    6
    SAVE BUDGET
    SAVE HEAD
    SAVE HEAD FOR ALL LAYERS
 UBDSV1 SAVING      STORAGE(SS) ON UNIT   1017 AT TIME STEP      6, STRESS PERIOD      6
 UBDSV1 SAVING      STORAGE(SY) ON UNIT   1017 AT TIME STEP      6, STRESS PERIOD      6
 UBDSV1 SAVING FLOW RIGHT FACE  ON UNIT   1017 AT TIME STEP      6, STRESS PERIOD      6
 UBDSV1 SAVING FLOW FRONT FACE  ON UNIT   1017 AT TIME STEP      6, STRESS PERIOD      6
 UBDSV1 SAVING FLOW LOWER FACE  ON UNIT   1017 AT TIME STEP      6, STRESS PERIOD      6
 UBDSV4 SAVING WELLS NEAR RIVER ON UNIT   1017 AT TIME STEP      6, STRESS PERIOD      6
 UBDSV4 SAVING RIVER            ON UNIT   1017 AT TIME STEP      6, STRESS PERIOD      6

 RIVER              PERIOD  6   STEP  6
 BOUNDARY      1   LAYER   1   ROW     1   COL    15   RATE    -9142.90    
 BOUNDARY      2   LAYER   1   ROW     2   COL    15   RATE    -9125.10      RIV2
 BOUNDARY      3   LAYER   1   ROW     3   COL    15   RATE    -9098.42      RIV3
 BOUNDARY      4   LAYER   1   ROW     4   COL    15   RATE    -9070.63    
 BOUNDARY      5   LAYER   1   ROW     5   COL    15   RATE    -9049.11    
 BOUNDARY      6   LAYER   1   ROW     6   COL    15   RATE    -9048.47    
 BOUNDARY      7   LAYER   1   ROW     7   COL    15   RATE    -9069.19      RIVX
 BOUNDARY      8   LAYER   1   ROW     8   COL    15   RATE    -9099.96      RIVX
 BOUNDARY      9   LAYER   1   ROW     9   COL    15   RATE    -9132.14      RIVX
 BOUNDARY     10   LAYER   1   ROW    10   COL    15   RATE    -9155.10    

 GHB LAKES          PERIOD  6   STEP  6
 BOUNDARY      1   LAYER   1   ROW     3   COL     1   RATE    -8038.55    
 BOUNDARY      2   LAYER   1   ROW     7   COL     1   RATE     4222.89      GHB2_UPPER
 BOUNDARY      3   LAYER   1   ROW     7   COL     1   RATE    -11061.0      GHB2_LOWER
 UBDSV4 SAVING RECHARGE         ON UNIT   1017 AT TIME STEP      6, STRESS PERIOD      6

 RECHARGE           PERIOD  6   STEP  6
 BOUNDARY      2   LAYER   1   ROW     1   COL     2   RATE     750.000    
 BOUNDARY      3   LAYER   1   ROW     1   COL     3   RATE     750.000    
 BOUNDARY      4   LAYER   1   ROW     1   COL     4   RATE     750.000    
 BOUNDARY      5   LAYER   1   ROW     1   COL     5   RATE     750.000    
 BOUNDARY      6   LAYER   1   ROW     1   COL     6   RATE     750.000    
 BOUNDARY      7   LAYER   1   ROW     1   COL     7   RATE     750.000    
 BOUNDARY      8   LAYER   1   ROW     1   COL     8   RATE     750.000    
 BOUNDARY      9   LAYER   1   ROW     1   COL     9   RATE     750.000    
 BOUNDARY     10   LAYER   1   ROW     1   COL    10   RATE     750.000    
 BOUNDARY     11   LAYER   1   ROW     1   COL    11   RATE     750.000    
 BOUNDARY     12   LAYER   1   ROW     1   COL    12   RATE     750.000    
 BOUNDARY     13   LAYER   1   ROW     1   COL    13   RATE     750.000    
 BOUNDARY     14   LAYER   1   ROW     1   COL    14   RATE     750.000    
 BOUNDARY     15   LAYER   1   ROW     1   COL    15   RATE     750.000    
 BOUNDARY     16   LAYER   1   ROW     2   COL     1   RATE     750.000    
 BOUNDARY     17   LAYER   1   ROW     2   COL     2   RATE     750.000    
 BOUNDARY     18   LAYER   1   ROW     2   COL     3   RATE     750.000    
 BOUNDARY     19   LAYER   1   ROW     2   COL     4   RATE     750.000    
 BOUNDARY     20   LAYER   1   ROW     2   COL     5   RATE     750.000    
 BOUNDARY     21   LAYER   1   ROW     2   COL     6   RATE     750.000    
 BOUNDARY     22   LAYER   1   ROW     2   COL     7   RATE     750.000    
 BOUNDARY     23   LAYER   1   ROW     2   COL     8   RATE     750.000    
 BOUNDARY     24   LAYER   1   ROW     2   COL     9   RATE     750.000    
 BOUNDARY     25   LAYER   1   ROW     2   COL    10   RATE     750.000    
 BOUNDARY     26   LAYER   1   ROW     2   COL    11   RATE     750.000    
 BOUNDARY     27   LAYER   1   ROW     2   COL    12   RATE     750.000    
 BOUNDARY     28   LAYER   1   ROW     2   COL    13   RATE     750.000    
 BOUNDARY     29   LAYER   1   ROW     2   COL    14   RATE     750.000    
 BOUNDARY     30   LAYER   1   ROW     2   COL    15   RATE     750.000    
 BOUNDARY     31   LAYER   1   ROW     3   COL     1   RATE     750.000    
 BOUNDARY     32   LAYER   1   ROW     3   COL     2   RATE     750.000    
 BOUNDARY     33   LAYER   1   ROW     3   COL     3   RATE     750.000    
 BOUNDARY     34   LAYER   1   ROW     3   COL     4   RATE     750.000    
 BOUNDARY     35   LAYER   1   ROW     3   COL     5   RATE     750.000    
 BOUNDARY     36   LAYER   1   ROW     3   COL     6   RATE     750.000    
 BOUNDARY     37   LAYER   1   ROW     3   COL     7   RATE     750.000    
 BOUNDARY     38   LAYER   1   ROW     3   COL     8   RATE     750.000    
 BOUNDARY     39   LAYER   1   ROW     3   COL     9   RATE     750.000    
 BOUNDARY     40   LAYER   1   ROW     3   COL    10   RATE     750.000    
 BOUNDARY     41   LAYER   1   ROW     3   COL    11   RATE     750.000    
 BOUNDARY     42   LAYER   1   ROW     3   COL    12   RATE     750.000    
 BOUNDARY     43   LAYER   1   ROW     3   COL    13   RATE     750.000    
 BOUNDARY     44   LAYER   1   ROW     3   COL    14   RATE     750.000    
 BOUNDARY     45   LAYER   1   ROW     3   COL    15   RATE     750.000    
 BOUNDARY     47   LAYER   1   ROW     4   COL     2   RATE     750.000    
 BOUNDARY     48   LAYER   1   ROW     4   COL     3   RATE     750.000    
 BOUNDARY     49   LAYER   1   ROW     4   COL     4   RATE     750.000    
 BOUNDARY     50   LAYER   1   ROW     4   COL     5   RATE     750.000    
 BOUNDARY     51   LAYER   1   ROW     4   COL     6   RATE     750.000    
 BOUNDARY     52   LAYER   1   ROW     4   COL     7   RATE     750.000    
 BOUNDARY     53   LAYER   1   ROW     4   COL     8   RATE     750.000    
 BOUNDARY     54   LAYER   1   ROW     4   COL     9   RATE     750.000    
 BOUNDARY     55   LAYER   1   ROW     4   COL    10   RATE     750.000    
 BOUNDARY     56   LAYER   1   ROW     4   COL    11   RATE     750.000    
 BOUNDARY     57   LAYER   1   ROW     4   COL    12   RATE     750.000    
 BOUNDARY     58   LAYER   1   ROW     4   COL    13   RATE     750.000    
 BOUNDARY     59   LAYER   1   ROW     4   COL    14   RATE     750.000    
 BOUNDARY     60   LAYER   1   ROW     4   COL    15   RATE     750.000    
 BOUNDARY     62   LAYER   1   ROW     5   COL     2   RATE     750.000    
 BOUNDARY     63   LAYER   1   ROW     5   COL     3   RATE     750.000    
 BOUNDARY     64   LAYER   1   ROW     5   COL     4   RATE     750.000    
 BOUNDARY     65   LAYER   1   ROW     5   COL     5   RATE     750.000    
 BOUNDARY     66   LAYER   1   ROW     5   COL     6   RATE     750.000    
 BOUNDARY     67   LAYER   1   ROW     5   COL     7   RATE     750.000    
 BOUNDARY     68   LAYER   1   ROW     5   COL     8   RATE     750.000    
 BOUNDARY     69   LAYER   1   ROW     5   COL     9   RATE     750.000    
 BOUNDARY     70   LAYER   1   ROW     5   COL    10   RATE     750.000    
 BOUNDARY     71   LAYER   1   ROW     5   COL    11   RATE     750.000    
 BOUNDARY     72   LAYER   1   ROW     5   COL    12   RATE     750.000    
 BOUNDARY     73   LAYER   1   ROW     5   COL    13   RATE     750.000    
 BOUNDARY     74   LAYER   1   ROW     5   COL    14   RATE     750.000    
 BOUNDARY     75   LAYER   1   ROW     5   COL    15   RATE     750.000    
 BOUNDARY     77   LAYER   1   ROW     6   COL     2   RATE     750.000    
 BOUNDARY     78   LAYER   1   ROW     6   COL     3   RATE     750.000    
 BOUNDARY     79   LAYER   1   ROW     6   COL     4   RATE     750.000    
 BOUNDARY     80   LAYER   1   ROW     6   COL     5   RATE     750.000    
 BOUNDARY     81   LAYER   1   ROW     6   COL     6   RATE     750.000    
 BOUNDARY     82   LAYER   1   ROW     6   COL     7   RATE     750.000    
 BOUNDARY     83   LAYER   1   ROW     6   COL     8   RATE     750.000    
 BOUNDARY     84   LAYER   1   ROW     6   COL     9   RATE     750.000    
 BOUNDARY     85   LAYER   1   ROW     6   COL    10   RATE     750.000    
 BOUNDARY     86   LAYER   1   ROW     6   COL    11   RATE     750.000    
 BOUNDARY     87   LAYER   1   ROW     6   COL    12   RATE     750.000    
 BOUNDARY     88   LAYER   1   ROW     6   COL    13   RATE     750.000    
 BOUNDARY     89   LAYER   1   ROW     6   COL    14   RATE     750.000    
 BOUNDARY     90   LAYER   1   ROW     6   COL    15   RATE     750.000    
 BOUNDARY     91   LAYER   1   ROW     7   COL     1   RATE     750.000    
 BOUNDARY     92   LAYER   1   ROW     7   COL     2   RATE     750.000    
 BOUNDARY     93   LAYER   1   ROW     7   COL     3   RATE     750.000    
 BOUNDARY     94   LAYER   1   ROW     7   COL     4   RATE     750.000    
 BOUNDARY     95   LAYER   1   ROW     7   COL     5   RATE     750.000    
 BOUNDARY     96   LAYER   1   ROW     7   COL     6   RATE     750.000    
 BOUNDARY     97   LAYER   1   ROW     7   COL     7   RATE     750.000    
 BOUNDARY     98   LAYER   1   ROW     7   COL     8   RATE     750.000    
 BOUNDARY     99   LAYER   1   ROW     7   COL     9   RATE     750.000    
 BOUNDARY    100   LAYER   1   ROW     7   COL    10   RATE     750.000    
 BOUNDARY    101   LAYER   1   ROW     7   COL    11   RATE     750.000    
 BOUNDARY    102   LAYER   1   ROW     7   COL    12   RATE     750.000    
 BOUNDARY    103   LAYER   1   ROW     7   COL    13   RATE     750.000    
 BOUNDARY    104   LAYER   1   ROW     7   COL    14   RATE     750.000    
 BOUNDARY    105   LAYER   1   ROW     7   COL    15   RATE     750.000    
 BOUNDARY    106   LAYER   1   ROW     8   COL     1   RATE     750.000    
 BOUNDARY    107   LAYER   1   ROW     8   COL     2   RATE     750.000    
 BOUNDARY    108   LAYER   1   ROW     8   COL     3   RATE     750.000    
 BOUNDARY    109   LAYER   1   ROW     8   COL     4   RATE     750.000    
 BOUNDARY    110   LAYER   1   ROW     8   COL     5   RATE     750.000    
 BOUNDARY    111   LAYER   1   ROW     8   COL     6   RATE     750.000    
 BOUNDARY    112   LAYER   1   ROW     8   COL     7   RATE     750.000    
 BOUNDARY    113   LAYER   1   ROW     8   COL     8   RATE     750.000    
 BOUNDARY    114   LAYER   1   ROW     8   COL     9   RATE     750.000    
 BOUNDARY    115   LAYER   1   ROW     8   COL    10   RATE     750.000    
 BOUNDARY    116   LAYER   1   ROW     8   COL    11   RATE     750.000    
 BOUNDARY    117   LAYER   1   ROW     8   COL    12   RATE     750.000    
 BOUNDARY    118   LAYER   1   ROW     8   COL    13   RATE     750.000    
 BOUNDARY    119   LAYER   1   ROW     8   COL    14   RATE     750.000    
 BOUNDARY    120   LAYER   1   ROW     8   COL    15   RATE     750.000    
 BOUNDARY    121   LAYER   1   ROW     9   COL     1   RATE     750.000    
 BOUNDARY    122   LAYER   1   ROW     9   COL     2   RATE     750.000    
 BOUNDARY    123   LAYER   1   ROW     9   COL     3   RATE     750.000    
 BOUNDARY    124   LAYER   1   ROW     9   COL     4   RATE     750.000    
 BOUNDARY    125   LAYER   1   ROW     9   COL     5   RATE     750.000    
 BOUNDARY    126   LAYER   1   ROW     9   COL     6   RATE     750.000    
 BOUNDARY    127   LAYER   1   ROW     9   COL     7   RATE     750.000    
 BOUNDARY    128   LAYER   1   ROW     9   COL     8   RATE     750.000    
 BOUNDARY    129   LAYER   1   ROW     9   COL     9   RATE     750.000    
 BOUNDARY    130   LAYER   1   ROW     9   COL    10   RATE     750.000    
 BOUNDARY    131   LAYER   1   ROW     9   COL    11   RATE     750.000    
 BOUNDARY    132   LAYER   1   ROW     9   COL    12   RATE     750.000    
 BOUNDARY    133   LAYER   1   ROW     9   COL    13   RATE     750.000    
 BOUNDARY    134   LAYER   1   ROW     9   COL    14   RATE     750.000    
 BOUNDARY    135   LAYER   1   ROW     9   COL    15   RATE     750.000    
 BOUNDARY    137   LAYER   1   ROW    10   COL     2   RATE     750.000    
 BOUNDARY    138   LAYER   1   ROW    10   COL     3   RATE     750.000    
 BOUNDARY    139   LAYER   1   ROW    10   COL     4   RATE     750.000    
 BOUNDARY    140   LAYER   1   ROW    10   COL     5   RATE     750.000    
 BOUNDARY    141   LAYER   1   ROW    10   COL     6   RATE     750.000    
 BOUNDARY    142   LAYER   1   ROW    10   COL     7   RATE     750.000    
 BOUNDARY    143   LAYER   1   ROW    10   COL     8   RATE     750.000    
 BOUNDARY    144   LAYER   1   ROW    10   COL     9   RATE     750.000    
 BOUNDARY    145   LAYER   1   ROW    10   COL    10   RATE     750.000    
 BOUNDARY    146   LAYER   1   ROW    10   COL    11   RATE     750.000    
 BOUNDARY    147   LAYER   1   ROW    10   COL    12   RATE     750.000    
 BOUNDARY    148   LAYER   1   ROW    10   COL    13   RATE     750.000    
 BOUNDARY    149   LAYER   1   ROW    10   COL    14   RATE     750.000    
 BOUNDARY    150   LAYER   1   ROW    10   COL    15   RATE     750.000    
 UBDSV4 SAVING ET SEGS          ON UNIT   1017 AT TIME STEP      6, STRESS PERIOD      6

 ET SEGS            PERIOD  6   STEP  6
 BOUNDARY      1   LAYER   1   ROW     1   COL    13   RATE    -91.3075      ET-1
 BOUNDARY      2   LAYER   1   ROW     2   COL    13   RATE    -172.847      ET-2
 BOUNDARY      3   LAYER   1   ROW     3   COL    13   RATE    -239.552      ET-3
 BOUNDARY      4   LAYER   1   ROW     4   COL    13   RATE    -292.415      ET-4
 BOUNDARY      5   LAYER   1   ROW     5   COL    13   RATE    -298.313      ET-5
 BOUNDARY      6   LAYER   1   ROW     6   COL    13   RATE    -297.499      ET-6
 BOUNDARY      7   LAYER   1   ROW     7   COL    13   RATE    -226.050      ET-7
 BOUNDARY      8   LAYER   1   ROW     8   COL    13   RATE    -177.983      ET-8
 BOUNDARY      9   LAYER   1   ROW     9   COL    13   RATE    -117.340      ET-9
 BOUNDARY     10   LAYER   1   ROW    10   COL    13   RATE    -47.2447      ET-10
 BOUNDARY     11   LAYER   1   ROW     1   COL    12   RATE    -148.206      ET-1
 BOUNDARY     12   LAYER   1   ROW     2   COL    12   RATE    -259.974      ET-2
 BOUNDARY     13   LAYER   1   ROW     3   COL    12   RATE    -331.560      ET-3
 BOUNDARY     14   LAYER   1   ROW     4   COL    12   RATE    -411.117      ET-4
 BOUNDARY     15   LAYER   1   ROW     5   COL    12   RATE    -425.608      ET-5
 BOUNDARY     16   LAYER   1   ROW     6   COL    12   RATE    -424.783      ET-6
 BOUNDARY     17   LAYER   1   ROW     7   COL    12   RATE    -318.443      ET-7
 BOUNDARY     18   LAYER   1   ROW     8   COL    12   RATE    -246.434      ET-8
 BOUNDARY     19   LAYER   1   ROW     9   COL    12   RATE    -182.221      ET-9
 BOUNDARY     20   LAYER   1   ROW    10   COL    12   RATE    -80.4110      ET-10
 UBDSV4 SAVING CONSTANT HEADS   ON UNIT   1017 AT TIME STEP      6, STRESS PERIOD      6

 CONSTANT HEADS     PERIOD  6   STEP  6
 BOUNDARY      1   LAYER   1   ROW     1   COL     1   RATE     2622.35      CHD-1
 BOUNDARY      2   LAYER   1   ROW     4   COL     1   RATE     4721.66    
 BOUNDARY      3   LAYER   1   ROW     5   COL     1   RATE     851.556      CHD_GP
 BOUNDARY      4   LAYER   1   ROW     6   COL     1   RATE     4311.48      CHD_GP
 BOUNDARY      5   LAYER   1   ROW    10   COL     1   RATE     1741.30      CHD-10

 HEAD WILL BE SAVED ON UNIT 1018 AT END OF TIME STEP    6, STRESS PERIOD    6
RIV   no.    1 value from time series:   101.35     for time:  10.20     to  10.40    
RIV   no.    2 value from time series:   101.35     for time:  10.20     to  10.40    
RIV   no.    3 value from time series:   101.35     for time:  10.20     to  10.40    
RIV   no.    4 value from time series:   101.35     for time:  10.20     to  10.40    
RIV   no.    5 value from time series:   101.35     for time:  10.20     to  10.40    
RIV   no.    6 value from time series:   101.35     for time:  10.20     to  10.40    
RIV   no.    7 value from time series:   101.35     for time:  10.20     to  10.40    
RIV   no.    8 value from time series:   101.35     for time:  10.20     to  10.40    
RIV   no.    9 value from time series:   101.35     for time:  10.20     to  10.40    
RIV   no.   10 value from time series:   101.35     for time:  10.20     to  10.40    
EVT   no.    1 value from time series:   1086.8     for time:  10.20     to  10.40    
EVT   no.    2 value from time series:   2173.5     for time:  10.20     to  10.40    
EVT   no.    3 value from time series:   3260.3     for time:  10.20     to  10.40    
EVT   no.    4 value from time series:   4347.0     for time:  10.20     to  10.40    
EVT   no.   10 value from time series:   543.38     for time:  10.20     to  10.40    
EVT   no.   11 value from time series:   1086.8     for time:  10.20     to  10.40    
EVT   no.   12 value from time series:   2173.5     for time:  10.20     to  10.40    
EVT   no.   13 value from time series:   3260.3     for time:  10.20     to  10.40    
EVT   no.   14 value from time series:   4347.0     for time:  10.20     to  10.40    
EVT   no.   20 value from time series:   543.38     for time:  10.20     to  10.40    
RIV   no.    1 value from time series:   101.35     for time:  10.20     to  10.40    
RIV   no.    2 value from time series:   101.35     for time:  10.20     to  10.40    
RIV   no.    3 value from time series:   101.35     for time:  10.20     to  10.40    
RIV   no.    4 value from time series:   101.35     for time:  10.20     to  10.40    
RIV   no.    5 value from time series:   101.35     for time:  10.20     to  10.40    
RIV   no.    6 value from time series:   101.35     for time:  10.20     to  10.40    
RIV   no.    7 value from time series:   101.35     for time:  10.20     to  10.40    
RIV   no.    8 value from time series:   101.35     for time:  10.20     to  10.40    
RIV   no.    9 value from time series:   101.35     for time:  10.20     to  10.40    
RIV   no.   10 value from time series:   101.35     for time:  10.20     to  10.40    
EVT   no.    1 value from time series:   1086.8     for time:  10.20     to  10.40    
EVT   no.    2 value from time series:   2173.5     for time:  10.20     to  10.40    
EVT   no.    3 value from time series:   3260.3     for time:  10.20     to  10.40    
EVT   no.    4 value from time series:   4347.0     for time:  10.20     to  10.40    
EVT   no.   10 value from time series:   543.38     for time:  10.20     to  10.40    
EVT   no.   11 value from time series:   1086.8     for time:  10.20     to  10.40    
EVT   no.   12 value from time series:   2173.5     for time:  10.20     to  10.40    
EVT   no.   13 value from time series:   3260.3     for time:  10.20     to  10.40    
EVT   no.   14 value from time series:   4347.0     for time:  10.20     to  10.40    
EVT   no.   20 value from time series:   543.38     for time:  10.20     to  10.40    

 OUTPUT CONTROL FOR STRESS PERIOD    6   TIME STEP    7
    SAVE BUDGET
    SAVE HEAD
    SAVE HEAD FOR ALL LAYERS
 UBDSV1 SAVING      STORAGE(SS) ON UNIT   1017 AT TIME STEP      7, STRESS PERIOD      6
 UBDSV1 SAVING      STORAGE(SY) ON UNIT   1017 AT TIME STEP      7, STRESS PERIOD      6
 UBDSV1 SAVING FLOW RIGHT FACE  ON UNIT   1017 AT TIME STEP      7, STRESS PERIOD      6
 UBDSV1 SAVING FLOW FRONT FACE  ON UNIT   1017 AT TIME STEP      7, STRESS PERIOD      6
 UBDSV1 SAVING FLOW LOWER FACE  ON UNIT   1017 AT TIME STEP      7, STRESS PERIOD      6
 UBDSV4 SAVING WELLS NEAR RIVER ON UNIT   1017 AT TIME STEP      7, STRESS PERIOD      6
 UBDSV4 SAVING RIVER            ON UNIT   1017 AT TIME STEP      7, STRESS PERIOD      6

 RIVER              PERIOD  6   STEP  7
 BOUNDARY      1   LAYER   1   ROW     1   COL    15   RATE    -9445.87    
 BOUNDARY      2   LAYER   1   ROW     2   COL    15   RATE    -9428.06      RIV2
 BOUNDARY      3   LAYER   1   ROW     3   COL    15   RATE    -9401.36      RIV3
 BOUNDARY      4   LAYER   1   ROW     4   COL    15   RATE    -9373.55    
 BOUNDARY      5   LAYER   1   ROW     5   COL    15   RATE    -9352.02    
 BOUNDARY      6   LAYER   1   ROW     6   COL    15   RATE    -9351.38    
 BOUNDARY      7   LAYER   1   ROW     7   COL    15   RATE    -9372.11      RIVX
 BOUNDARY      8   LAYER   1   ROW     8   COL    15   RATE    -9402.91      RIVX
 BOUNDARY      9   LAYER   1   ROW     9   COL    15   RATE    -9435.11      RIVX
 BOUNDARY     10   LAYER   1   ROW    10   COL    15   RATE    -9458.08    

 GHB LAKES          PERIOD  6   STEP  7
 BOUNDARY      1   LAYER   1   ROW     3   COL     1   RATE    -8042.14    
 BOUNDARY      2   LAYER   1   ROW     7   COL     1   RATE     4219.97      GHB2_UPPER
 BOUNDARY      3   LAYER   1   ROW     7   COL     1   RATE    -11062.1      GHB2_LOWER
 UBDSV4 SAVING RECHARGE         ON UNIT   1017 AT TIME STEP      7, STRESS PERIOD      6

 RECHARGE           PERIOD  6   STEP  7
 BOUNDARY      2   LAYER   1   ROW     1   COL     2   RATE     750.000    
 BOUNDARY      3   LAYER   1   ROW     1   COL     3   RATE     750.000    
 BOUNDARY      4   LAYER   1   ROW     1   COL     4   RATE     750.000    
 BOUNDARY      5   LAYER   1   ROW     1   COL     5   RATE     750.000    
 BOUNDARY      6   LAYER   1   ROW     1   COL     6   RATE     750.000    
 BOUNDARY      7   LAYER   1   ROW     1   COL     7   RATE     750.000    
 BOUNDARY      8   LAYER   1   ROW     1   COL     8   RATE     750.000    
 BOUNDARY      9   LAYER   1   ROW     1   COL     9   RATE     750.000    
 BOUNDARY     10   LAYER   1   ROW     1   COL    10   RATE     750.000    
 BOUNDARY     11   LAYER   1   ROW     1   COL    11   RATE     750.000    
 BOUNDARY     12   LAYER   1   ROW     1   COL    12   RATE     750.000    
 BOUNDARY     13   LAYER   1   ROW     1   COL    13   RATE     750.000    
 BOUNDARY     14   LAYER   1   ROW     1   COL    14   RATE     750.000    
 BOUNDARY     15   LAYER   1   ROW     1   COL    15   RATE     750.000    
 BOUNDARY     16   LAYER   1   ROW     2   COL     1   RATE     750.000    
 BOUNDARY     17   LAYER   1   ROW     2   COL     2   RATE     750.000    
 BOUNDARY     18   LAYER   1   ROW     2   COL     3   RATE     750.000    
 BOUNDARY     19   LAYER   1   ROW     2   COL     4   RATE     750.000    
 BOUNDARY     20   LAYER   1   ROW     2   COL     5   RATE     750.000    
 BOUNDARY     21   LAYER   1   ROW     2   COL     6   RATE     750.000    
 BOUNDARY     22   LAYER   1   ROW     2   COL     7   RATE     750.000    
 BOUNDARY     23   LAYER   1   ROW     2   COL     8   RATE     750.000    
 BOUNDARY     24   LAYER   1   ROW     2   COL     9   RATE     750.000    
 BOUNDARY     25   LAYER   1   ROW     2   COL    10   RATE     750.000    
 BOUNDARY     26   LAYER   1   ROW     2   COL    11   RATE     750.000    
 BOUNDARY     27   LAYER   1   ROW     2   COL    12   RATE     750.000    
 BOUNDARY     28   LAYER   1   ROW     2   COL    13   RATE     750.000    
 BOUNDARY     29   LAYER   1   ROW     2   COL    14   RATE     750.000    
 BOUNDARY     30   LAYER   1   ROW     2   COL    15   RATE     750.000    
 BOUNDARY     31   LAYER   1   ROW     3   COL     1   RATE     750.000    
 BOUNDARY     32   LAYER   1   ROW     3   COL     2   RATE     750.000    
 BOUNDARY     33   LAYER   1   ROW     3   COL     3   RATE     750.000    
 BOUNDARY     34   LAYER   1   ROW     3   COL     4   RATE     750.000    
 BOUNDARY     35   LAYER   1   ROW     3   COL     5   RATE     750.000    
 BOUNDARY     36   LAYER   1   ROW     3   COL     6   RATE     750.000    
 BOUNDARY     37   LAYER   1   ROW     3   COL     7   RATE     750.000    
 BOUNDARY     38   LAYER   1   ROW     3   COL     8   RATE     750.000    
 BOUNDARY     39   LAYER   1   ROW     3   COL     9   RATE     750.000    
 BOUNDARY     40   LAYER   1   ROW     3   COL    10   RATE     750.000    
 BOUNDARY     41   LAYER   1   ROW     3   COL    11   RATE     750.000    
 BOUNDARY     42   LAYER   1   ROW     3   COL    12   RATE     750.000    
 BOUNDARY     43   LAYER   1   ROW     3   COL    13   RATE     750.000    
 BOUNDARY     44   LAYER   1   ROW     3   COL    14   RATE     750.000    
 BOUNDARY     45   LAYER   1   ROW     3   COL    15   RATE     750.000    
 BOUNDARY     47   LAYER   1   ROW     4   COL     2   RATE     750.000    
 BOUNDARY     48   LAYER   1   ROW     4   COL     3   RATE     750.000    
 BOUNDARY     49   LAYER   1   ROW     4   COL     4   RATE     750.000    
 BOUNDARY     50   LAYER   1   ROW     4   COL     5   RATE     750.000    
 BOUNDARY     51   LAYER   1   ROW     4   COL     6   RATE     750.000    
 BOUNDARY     52   LAYER   1   ROW     4   COL     7   RATE     750.000    
 BOUNDARY     53   LAYER   1   ROW     4   COL     8   RATE     750.000    
 BOUNDARY     54   LAYER   1   ROW     4   COL     9   RATE     750.000    
 BOUNDARY     55   LAYER   1   ROW     4   COL    10   RATE     750.000    
 BOUNDARY     56   LAYER   1   ROW     4   COL    11   RATE     750.000    
 BOUNDARY     57   LAYER   1   ROW     4   COL    12   RATE     750.000    
 BOUNDARY     58   LAYER   1   ROW     4   COL    13   RATE     750.000    
 BOUNDARY     59   LAYER   1   ROW     4   COL    14   RATE     750.000    
 BOUNDARY     60   LAYER   1   ROW     4   COL    15   RATE     750.000    
 BOUNDARY     62   LAYER   1   ROW     5   COL     2   RATE     750.000    
 BOUNDARY     63   LAYER   1   ROW     5   COL     3   RATE     750.000    
 BOUNDARY     64   LAYER   1   ROW     5   COL     4   RATE     750.000    
 BOUNDARY     65   LAYER   1   ROW     5   COL     5   RATE     750.000    
 BOUNDARY     66   LAYER   1   ROW     5   COL     6   RATE     750.000    
 BOUNDARY     67   LAYER   1   ROW     5   COL     7   RATE     750.000    
 BOUNDARY     68   LAYER   1   ROW     5   COL     8   RATE     750.000    
 BOUNDARY     69   LAYER   1   ROW     5   COL     9   RATE     750.000    
 BOUNDARY     70   LAYER   1   ROW     5   COL    10   RATE     750.000    
 BOUNDARY     71   LAYER   1   ROW     5   COL    11   RATE     750.000    
 BOUNDARY     72   LAYER   1   ROW     5   COL    12   RATE     750.000    
 BOUNDARY     73   LAYER   1   ROW     5   COL    13   RATE     750.000    
 BOUNDARY     74   LAYER   1   ROW     5   COL    14   RATE     750.000    
 BOUNDARY     75   LAYER   1   ROW     5   COL    15   RATE     750.000    
 BOUNDARY     77   LAYER   1   ROW     6   COL     2   RATE     750.000    
 BOUNDARY     78   LAYER   1   ROW     6   COL     3   RATE     750.000    
 BOUNDARY     79   LAYER   1   ROW     6   COL     4   RATE     750.000    
 BOUNDARY     80   LAYER   1   ROW     6   COL     5   RATE     750.000    
 BOUNDARY     81   LAYER   1   ROW     6   COL     6   RATE     750.000    
 BOUNDARY     82   LAYER   1   ROW     6   COL     7   RATE     750.000    
 BOUNDARY     83   LAYER   1   ROW     6   COL     8   RATE     750.000    
 BOUNDARY     84   LAYER   1   ROW     6   COL     9   RATE     750.000    
 BOUNDARY     85   LAYER   1   ROW     6   COL    10   RATE     750.000    
 BOUNDARY     86   LAYER   1   ROW     6   COL    11   RATE     750.000    
 BOUNDARY     87   LAYER   1   ROW     6   COL    12   RATE     750.000    
 BOUNDARY     88   LAYER   1   ROW     6   COL    13   RATE     750.000    
 BOUNDARY     89   LAYER   1   ROW     6   COL    14   RATE     750.000    
 BOUNDARY     90   LAYER   1   ROW     6   COL    15   RATE     750.000    
 BOUNDARY     91   LAYER   1   ROW     7   COL     1   RATE     750.000    
 BOUNDARY     92   LAYER   1   ROW     7   COL     2   RATE     750.000    
 BOUNDARY     93   LAYER   1   ROW     7   COL     3   RATE     750.000    
 BOUNDARY     94   LAYER   1   ROW     7   COL     4   RATE     750.000    
 BOUNDARY     95   LAYER   1   ROW     7   COL     5   RATE     750.000    
 BOUNDARY     96   LAYER   1   ROW     7   COL     6   RATE     750.000    
 BOUNDARY     97   LAYER   1   ROW     7   COL     7   RATE     750.000    
 BOUNDARY     98   LAYER   1   ROW     7   COL     8   RATE     750.000    
 BOUNDARY     99   LAYER   1   ROW     7   COL     9   RATE     750.000    
 BOUNDARY    100   LAYER   1   ROW     7   COL    10   RATE     750.000    
 BOUNDARY    101   LAYER   1   ROW     7   COL    11   RATE     750.000    
 BOUNDARY    102   LAYER   1   ROW     7   COL    12   RATE     750.000    
 BOUNDARY    103   LAYER   1   ROW     7   COL    13   RATE     750.000    
 BOUNDARY    104   LAYER   1   ROW     7   COL    14   RATE     750.000    
 BOUNDARY    105   LAYER   1   ROW     7   COL    15   RATE     750.000    
 BOUNDARY    106   LAYER   1   ROW     8   COL     1   RATE     750.000    
 BOUNDARY    107   LAYER   1   ROW     8   COL     2   RATE     750.000    
 BOUNDARY    108   LAYER   1   ROW     8   COL     3   RATE     750.000    
 BOUNDARY    109   LAYER   1   ROW     8   COL     4   RATE     750.000    
 BOUNDARY    110   LAYER   1   ROW     8   COL     5   RATE     750.000    
 BOUNDARY    111   LAYER   1   ROW     8   COL     6   RATE     750.000    
 BOUNDARY    112   LAYER   1   ROW     8   COL     7   RATE     750.000    
 BOUNDARY    113   LAYER   1   ROW     8   COL     8   RATE     750.000    
 BOUNDARY    114   LAYER   1   ROW     8   COL     9   RATE     750.000    
 BOUNDARY    115   LAYER   1   ROW     8   COL    10   RATE     750.000    
 BOUNDARY    116   LAYER   1   ROW     8   COL    11   RATE     750.000    
 BOUNDARY    117   LAYER   1   ROW     8   COL    12   RATE     750.000    
 BOUNDARY    118   LAYER   1   ROW     8   COL    13   RATE     750.000    
 BOUNDARY    119   LAYER   1   ROW     8   COL    14   RATE     750.000    
 BOUNDARY    120   LAYER   1   ROW     8   COL    15   RATE     750.000    
 BOUNDARY    121   LAYER   1   ROW     9   COL     1   RATE     750.000    
 BOUNDARY    122   LAYER   1   ROW     9   COL     2   RATE     750.000    
 BOUNDARY    123   LAYER   1   ROW     9   COL     3   RATE     750.000    
 BOUNDARY    124   LAYER   1   ROW     9   COL     4   RATE     750.000    
 BOUNDARY    125   LAYER   1   ROW     9   COL     5   RATE     750.000    
 BOUNDARY    126   LAYER   1   ROW     9   COL     6   RATE     750.000    
 BOUNDARY    127   LAYER   1   ROW     9   COL     7   RATE     750.000    
 BOUNDARY    128   LAYER   1   ROW     9   COL     8   RATE     750.000    
 BOUNDARY    129   LAYER   1   ROW     9   COL     9   RATE     750.000    
 BOUNDARY    130   LAYER   1   ROW     9   COL    10   RATE     750.000    
 BOUNDARY    131   LAYER   1   ROW     9   COL    11   RATE     750.000    
 BOUNDARY    132   LAYER   1   ROW     9   COL    12   RATE     750.000    
 BOUNDARY    133   LAYER   1   ROW     9   COL    13   RATE     750.000    
 BOUNDARY    134   LAYER   1   ROW     9   COL    14   RATE     750.000    
 BOUNDARY    135   LAYER   1   ROW     9   COL    15   RATE     750.000    
 BOUNDARY    137   LAYER   1   ROW    10   COL     2   RATE     750.000    
 BOUNDARY    138   LAYER   1   ROW    10   COL     3   RATE     750.000    
 BOUNDARY    139   LAYER   1   ROW    10   COL     4   RATE     750.000    
 BOUNDARY    140   LAYER   1   ROW    10   COL     5   RATE     750.000    
 BOUNDARY    141   LAYER   1   ROW    10   COL     6   RATE     750.000    
 BOUNDARY    142   LAYER   1   ROW    10   COL     7   RATE     750.000    
 BOUNDARY    143   LAYER   1   ROW    10   COL     8   RATE     750.000    
 BOUNDARY    144   LAYER   1   ROW    10   COL     9   RATE     750.000    
 BOUNDARY    145   LAYER   1   ROW    10   COL    10   RATE     750.000    
 BOUNDARY    146   LAYER   1   ROW    10   COL    11   RATE     750.000    
 BOUNDARY    147   LAYER   1   ROW    10   COL    12   RATE     750.000    
 BOUNDARY    148   LAYER   1   ROW    10   COL    13   RATE     750.000    
 BOUNDARY    149   LAYER   1   ROW    10   COL    14   RATE     750.000    
 BOUNDARY    150   LAYER   1   ROW    10   COL    15   RATE     750.000    
 UBDSV4 SAVING ET SEGS          ON UNIT   1017 AT TIME STEP      7, STRESS PERIOD      6

 ET SEGS            PERIOD  6   STEP  7
 BOUNDARY      1   LAYER   1   ROW     1   COL    13   RATE    -88.1479      ET-1
 BOUNDARY      2   LAYER   1   ROW     2   COL    13   RATE    -166.871      ET-2
 BOUNDARY      3   LAYER   1   ROW     3   COL    13   RATE    -231.286      ET-3
 BOUNDARY      4   LAYER   1   ROW     4   COL    13   RATE    -282.355      ET-4
 BOUNDARY      5   LAYER   1   ROW     5   COL    13   RATE    -298.870      ET-5
 BOUNDARY      6   LAYER   1   ROW     6   COL    13   RATE    -298.060      ET-6
 BOUNDARY      7   LAYER   1   ROW     7   COL    13   RATE    -226.446      ET-7
 BOUNDARY      8   LAYER   1   ROW     8   COL    13   RATE    -178.268      ET-8
 BOUNDARY      9   LAYER   1   ROW     9   COL    13   RATE    -117.511      ET-9
 BOUNDARY     10   LAYER   1   ROW    10   COL    13   RATE    -45.6090      ET-10
 BOUNDARY     11   LAYER   1   ROW     1   COL    12   RATE    -143.258      ET-1
 BOUNDARY     12   LAYER   1   ROW     2   COL    12   RATE    -251.349      ET-2
 BOUNDARY     13   LAYER   1   ROW     3   COL    12   RATE    -319.966      ET-3
 BOUNDARY     14   LAYER   1   ROW     4   COL    12   RATE    -396.761      ET-4
 BOUNDARY     15   LAYER   1   ROW     5   COL    12   RATE    -426.145      ET-5
 BOUNDARY     16   LAYER   1   ROW     6   COL    12   RATE    -425.325      ET-6
 BOUNDARY     17   LAYER   1   ROW     7   COL    12   RATE    -318.826      ET-7
 BOUNDARY     18   LAYER   1   ROW     8   COL    12   RATE    -246.709      ET-8
 BOUNDARY     19   LAYER   1   ROW     9   COL    12   RATE    -182.762      ET-9
 BOUNDARY     20   LAYER   1   ROW    10   COL    12   RATE    -77.7178      ET-10
 UBDSV4 SAVING CONSTANT HEADS   ON UNIT   1017 AT TIME STEP      7, STRESS PERIOD      6

 CONSTANT HEADS     PERIOD  6   STEP  7
 BOUNDARY      1   LAYER   1   ROW     1   COL     1   RATE     2621.66      CHD-1
 BOUNDARY      2   LAYER   1   ROW     4   COL     1   RATE     4721.68    
 BOUNDARY      3   LAYER   1   ROW     5   COL     1   RATE     852.096      CHD_GP
 BOUNDARY      4   LAYER   1   ROW     6   COL     1   RATE     4311.77      CHD_GP
 BOUNDARY      5   LAYER   1   ROW    10   COL     1   RATE     1741.03      CHD-10

 HEAD WILL BE SAVED ON UNIT 1018 AT END OF TIME STEP    7, STRESS PERIOD    6
RIV   no.    1 value from time series:   101.25     for time:  10.40     to  10.60    
RIV   no.    2 value from time series:   101.25     for time:  10.40     to  10.60    
RIV   no.    3 value from time series:   101.25     for time:  10.40     to  10.60    
RIV   no.    4 value from time series:   101.25     for time:  10.40     to  10.60    
RIV   no.    5 value from time series:   101.25     for time:  10.40     to  10.60    
RIV   no.    6 value from time series:   101.25     for time:  10.40     to  10.60    
RIV   no.    7 value from time series:   101.25     for time:  10.40     to  10.60    
RIV   no.    8 value from time series:   101.25     for time:  10.40     to  10.60    
RIV   no.    9 value from time series:   101.25     for time:  10.40     to  10.60    
RIV   no.   10 value from time series:   101.25     for time:  10.40     to  10.60    
EVT   no.    1 value from time series:   1046.3     for time:  10.40     to  10.60    
EVT   no.    2 value from time series:   2092.5     for time:  10.40     to  10.60    
EVT   no.    3 value from time series:   3138.8     for time:  10.40     to  10.60    
EVT   no.    4 value from time series:   4185.0     for time:  10.40     to  10.60    
EVT   no.   10 value from time series:   523.13     for time:  10.40     to  10.60    
EVT   no.   11 value from time series:   1046.3     for time:  10.40     to  10.60    
EVT   no.   12 value from time series:   2092.5     for time:  10.40     to  10.60    
EVT   no.   13 value from time series:   3138.8     for time:  10.40     to  10.60    
EVT   no.   14 value from time series:   4185.0     for time:  10.40     to  10.60    
EVT   no.   20 value from time series:   523.13     for time:  10.40     to  10.60    
RIV   no.    1 value from time series:   101.25     for time:  10.40     to  10.60    
RIV   no.    2 value from time series:   101.25     for time:  10.40     to  10.60    
RIV   no.    3 value from time series:   101.25     for time:  10.40     to  10.60    
RIV   no.    4 value from time series:   101.25     for time:  10.40     to  10.60    
RIV   no.    5 value from time series:   101.25     for time:  10.40     to  10.60    
RIV   no.    6 value from time series:   101.25     for time:  10.40     to  10.60    
RIV   no.    7 value from time series:   101.25     for time:  10.40     to  10.60    
RIV   no.    8 value from time series:   101.25     for time:  10.40     to  10.60    
RIV   no.    9 value from time series:   101.25     for time:  10.40     to  10.60    
RIV   no.   10 value from time series:   101.25     for time:  10.40     to  10.60    
EVT   no.    1 value from time series:   1046.3     for time:  10.40     to  10.60    
EVT   no.    2 value from time series:   2092.5     for time:  10.40     to  10.60    
EVT   no.    3 value from time series:   3138.8     for time:  10.40     to  10.60    
EVT   no.    4 value from time series:   4185.0     for time:  10.40     to  10.60    
EVT   no.   10 value from time series:   523.13     for time:  10.40     to  10.60    
EVT   no.   11 value from time series:   1046.3     for time:  10.40     to  10.60    
EVT   no.   12 value from time series:   2092.5     for time:  10.40     to  10.60    
EVT   no.   13 value from time series:   3138.8     for time:  10.40     to  10.60    
EVT   no.   14 value from time series:   4185.0     for time:  10.40     to  10.60    
EVT   no.   20 value from time series:   523.13     for time:  10.40     to  10.60    

 OUTPUT CONTROL FOR STRESS PERIOD    6   TIME STEP    8
    SAVE BUDGET
    SAVE HEAD
    SAVE HEAD FOR ALL LAYERS
 UBDSV1 SAVING      STORAGE(SS) ON UNIT   1017 AT TIME STEP      8, STRESS PERIOD      6
 UBDSV1 SAVING      STORAGE(SY) ON UNIT   1017 AT TIME STEP      8, STRESS PERIOD      6
 UBDSV1 SAVING FLOW RIGHT FACE  ON UNIT   1017 AT TIME STEP      8, STRESS PERIOD      6
 UBDSV1 SAVING FLOW FRONT FACE  ON UNIT   1017 AT TIME STEP      8, STRESS PERIOD      6
 UBDSV1 SAVING FLOW LOWER FACE  ON UNIT   1017 AT TIME STEP      8, STRESS PERIOD      6
 UBDSV4 SAVING WELLS NEAR RIVER ON UNIT   1017 AT TIME STEP      8, STRESS PERIOD      6
 UBDSV4 SAVING RIVER            ON UNIT   1017 AT TIME STEP      8, STRESS PERIOD      6

 RIVER              PERIOD  6   STEP  8
 BOUNDARY      1   LAYER   1   ROW     1   COL    15   RATE    -9727.32    
 BOUNDARY      2   LAYER   1   ROW     2   COL    15   RATE    -9709.50      RIV2
 BOUNDARY      3   LAYER   1   ROW     3   COL    15   RATE    -9682.78      RIV3
 BOUNDARY      4   LAYER   1   ROW     4   COL    15   RATE    -9654.95    
 BOUNDARY      5   LAYER   1   ROW     5   COL    15   RATE    -9633.41    
 BOUNDARY      6   LAYER   1   ROW     6   COL    15   RATE    -9632.78    
 BOUNDARY      7   LAYER   1   ROW     7   COL    15   RATE    -9653.52      RIVX
 BOUNDARY      8   LAYER   1   ROW     8   COL    15   RATE    -9684.34      RIVX
 BOUNDARY      9   LAYER   1   ROW     9   COL    15   RATE    -9716.57      RIVX
 BOUNDARY     10   LAYER   1   ROW    10   COL    15   RATE    -9739.55    

 GHB LAKES          PERIOD  6   STEP  8
 BOUNDARY      1   LAYER   1   ROW     3   COL     1   RATE    -8045.67    
 BOUNDARY      2   LAYER   1   ROW     7   COL     1   RATE     4217.10      GHB2_UPPER
 BOUNDARY      3   LAYER   1   ROW     7   COL     1   RATE    -11063.1      GHB2_LOWER
 UBDSV4 SAVING RECHARGE         ON UNIT   1017 AT TIME STEP      8, STRESS PERIOD      6

 RECHARGE           PERIOD  6   STEP  8
 BOUNDARY      2   LAYER   1   ROW     1   COL     2   RATE     750.000    
 BOUNDARY      3   LAYER   1   ROW     1   COL     3   RATE     750.000    
 BOUNDARY      4   LAYER   1   ROW     1   COL     4   RATE     750.000    
 BOUNDARY      5   LAYER   1   ROW     1   COL     5   RATE     750.000    
 BOUNDARY      6   LAYER   1   ROW     1   COL     6   RATE     750.000    
 BOUNDARY      7   LAYER   1   ROW     1   COL     7   RATE     750.000    
 BOUNDARY      8   LAYER   1   ROW     1   COL     8   RATE     750.000    
 BOUNDARY      9   LAYER   1   ROW     1   COL     9   RATE     750.000    
 BOUNDARY     10   LAYER   1   ROW     1   COL    10   RATE     750.000    
 BOUNDARY     11   LAYER   1   ROW     1   COL    11   RATE     750.000    
 BOUNDARY     12   LAYER   1   ROW     1   COL    12   RATE     750.000    
 BOUNDARY     13   LAYER   1   ROW     1   COL    13   RATE     750.000    
 BOUNDARY     14   LAYER   1   ROW     1   COL    14   RATE     750.000    
 BOUNDARY     15   LAYER   1   ROW     1   COL    15   RATE     750.000    
 BOUNDARY     16   LAYER   1   ROW     2   COL     1   RATE     750.000    
 BOUNDARY     17   LAYER   1   ROW     2   COL     2   RATE     750.000    
 BOUNDARY     18   LAYER   1   ROW     2   COL     3   RATE     750.000    
 BOUNDARY     19   LAYER   1   ROW     2   COL     4   RATE     750.000    
 BOUNDARY     20   LAYER   1   ROW     2   COL     5   RATE     750.000    
 BOUNDARY     21   LAYER   1   ROW     2   COL     6   RATE     750.000    
 BOUNDARY     22   LAYER   1   ROW     2   COL     7   RATE     750.000    
 BOUNDARY     23   LAYER   1   ROW     2   COL     8   RATE     750.000    
 BOUNDARY     24   LAYER   1   ROW     2   COL     9   RATE     750.000    
 BOUNDARY     25   LAYER   1   ROW     2   COL    10   RATE     750.000    
 BOUNDARY     26   LAYER   1   ROW     2   COL    11   RATE     750.000    
 BOUNDARY     27   LAYER   1   ROW     2   COL    12   RATE     750.000    
 BOUNDARY     28   LAYER   1   ROW     2   COL    13   RATE     750.000    
 BOUNDARY     29   LAYER   1   ROW     2   COL    14   RATE     750.000    
 BOUNDARY     30   LAYER   1   ROW     2   COL    15   RATE     750.000    
 BOUNDARY     31   LAYER   1   ROW     3   COL     1   RATE     750.000    
 BOUNDARY     32   LAYER   1   ROW     3   COL     2   RATE     750.000    
 BOUNDARY     33   LAYER   1   ROW     3   COL     3   RATE     750.000    
 BOUNDARY     34   LAYER   1   ROW     3   COL     4   RATE     750.000    
 BOUNDARY     35   LAYER   1   ROW     3   COL     5   RATE     750.000    
 BOUNDARY     36   LAYER   1   ROW     3   COL     6   RATE     750.000    
 BOUNDARY     37   LAYER   1   ROW     3   COL     7   RATE     750.000    
 BOUNDARY     38   LAYER   1   ROW     3   COL     8   RATE     750.000    
 BOUNDARY     39   LAYER   1   ROW     3   COL     9   RATE     750.000    
 BOUNDARY     40   LAYER   1   ROW     3   COL    10   RATE     750.000    
 BOUNDARY     41   LAYER   1   ROW     3   COL    11   RATE     750.000    
 BOUNDARY     42   LAYER   1   ROW     3   COL    12   RATE     750.000    
 BOUNDARY     43   LAYER   1   ROW     3   COL    13   RATE     750.000    
 BOUNDARY     44   LAYER   1   ROW     3   COL    14   RATE     750.000    
 BOUNDARY     45   LAYER   1   ROW     3   COL    15   RATE     750.000    
 BOUNDARY     47   LAYER   1   ROW     4   COL     2   RATE     750.000    
 BOUNDARY     48   LAYER   1   ROW     4   COL     3   RATE     750.000    
 BOUNDARY     49   LAYER   1   ROW     4   COL     4   RATE     750.000    
 BOUNDARY     50   LAYER   1   ROW     4   COL     5   RATE     750.000    
 BOUNDARY     51   LAYER   1   ROW     4   COL     6   RATE     750.000    
 BOUNDARY     52   LAYER   1   ROW     4   COL     7   RATE     750.000    
 BOUNDARY     53   LAYER   1   ROW     4   COL     8   RATE     750.000    
 BOUNDARY     54   LAYER   1   ROW     4   COL     9   RATE     750.000    
 BOUNDARY     55   LAYER   1   ROW     4   COL    10   RATE     750.000    
 BOUNDARY     56   LAYER   1   ROW     4   COL    11   RATE     750.000    
 BOUNDARY     57   LAYER   1   ROW     4   COL    12   RATE     750.000    
 BOUNDARY     58   LAYER   1   ROW     4   COL    13   RATE     750.000    
 BOUNDARY     59   LAYER   1   ROW     4   COL    14   RATE     750.000    
 BOUNDARY     60   LAYER   1   ROW     4   COL    15   RATE     750.000    
 BOUNDARY     62   LAYER   1   ROW     5   COL     2   RATE     750.000    
 BOUNDARY     63   LAYER   1   ROW     5   COL     3   RATE     750.000    
 BOUNDARY     64   LAYER   1   ROW     5   COL     4   RATE     750.000    
 BOUNDARY     65   LAYER   1   ROW     5   COL     5   RATE     750.000    
 BOUNDARY     66   LAYER   1   ROW     5   COL     6   RATE     750.000    
 BOUNDARY     67   LAYER   1   ROW     5   COL     7   RATE     750.000    
 BOUNDARY     68   LAYER   1   ROW     5   COL     8   RATE     750.000    
 BOUNDARY     69   LAYER   1   ROW     5   COL     9   RATE     750.000    
 BOUNDARY     70   LAYER   1   ROW     5   COL    10   RATE     750.000    
 BOUNDARY     71   LAYER   1   ROW     5   COL    11   RATE     750.000    
 BOUNDARY     72   LAYER   1   ROW     5   COL    12   RATE     750.000    
 BOUNDARY     73   LAYER   1   ROW     5   COL    13   RATE     750.000    
 BOUNDARY     74   LAYER   1   ROW     5   COL    14   RATE     750.000    
 BOUNDARY     75   LAYER   1   ROW     5   COL    15   RATE     750.000    
 BOUNDARY     77   LAYER   1   ROW     6   COL     2   RATE     750.000    
 BOUNDARY     78   LAYER   1   ROW     6   COL     3   RATE     750.000    
 BOUNDARY     79   LAYER   1   ROW     6   COL     4   RATE     750.000    
 BOUNDARY     80   LAYER   1   ROW     6   COL     5   RATE     750.000    
 BOUNDARY     81   LAYER   1   ROW     6   COL     6   RATE     750.000    
 BOUNDARY     82   LAYER   1   ROW     6   COL     7   RATE     750.000    
 BOUNDARY     83   LAYER   1   ROW     6   COL     8   RATE     750.000    
 BOUNDARY     84   LAYER   1   ROW     6   COL     9   RATE     750.000    
 BOUNDARY     85   LAYER   1   ROW     6   COL    10   RATE     750.000    
 BOUNDARY     86   LAYER   1   ROW     6   COL    11   RATE     750.000    
 BOUNDARY     87   LAYER   1   ROW     6   COL    12   RATE     750.000    
 BOUNDARY     88   LAYER   1   ROW     6   COL    13   RATE     750.000    
 BOUNDARY     89   LAYER   1   ROW     6   COL    14   RATE     750.000    
 BOUNDARY     90   LAYER   1   ROW     6   COL    15   RATE     750.000    
 BOUNDARY     91   LAYER   1   ROW     7   COL     1   RATE     750.000    
 BOUNDARY     92   LAYER   1   ROW     7   COL     2   RATE     750.000    
 BOUNDARY     93   LAYER   1   ROW     7   COL     3   RATE     750.000    
 BOUNDARY     94   LAYER   1   ROW     7   COL     4   RATE     750.000    
 BOUNDARY     95   LAYER   1   ROW     7   COL     5   RATE     750.000    
 BOUNDARY     96   LAYER   1   ROW     7   COL     6   RATE     750.000    
 BOUNDARY     97   LAYER   1   ROW     7   COL     7   RATE     750.000    
 BOUNDARY     98   LAYER   1   ROW     7   COL     8   RATE     750.000    
 BOUNDARY     99   LAYER   1   ROW     7   COL     9   RATE     750.000    
 BOUNDARY    100   LAYER   1   ROW     7   COL    10   RATE     750.000    
 BOUNDARY    101   LAYER   1   ROW     7   COL    11   RATE     750.000    
 BOUNDARY    102   LAYER   1   ROW     7   COL    12   RATE     750.000    
 BOUNDARY    103   LAYER   1   ROW     7   COL    13   RATE     750.000    
 BOUNDARY    104   LAYER   1   ROW     7   COL    14   RATE     750.000    
 BOUNDARY    105   LAYER   1   ROW     7   COL    15   RATE     750.000    
 BOUNDARY    106   LAYER   1   ROW     8   COL     1   RATE     750.000    
 BOUNDARY    107   LAYER   1   ROW     8   COL     2   RATE     750.000    
 BOUNDARY    108   LAYER   1   ROW     8   COL     3   RATE     750.000    
 BOUNDARY    109   LAYER   1   ROW     8   COL     4   RATE     750.000    
 BOUNDARY    110   LAYER   1   ROW     8   COL     5   RATE     750.000    
 BOUNDARY    111   LAYER   1   ROW     8   COL     6   RATE     750.000    
 BOUNDARY    112   LAYER   1   ROW     8   COL     7   RATE     750.000    
 BOUNDARY    113   LAYER   1   ROW     8   COL     8   RATE     750.000    
 BOUNDARY    114   LAYER   1   ROW     8   COL     9   RATE     750.000    
 BOUNDARY    115   LAYER   1   ROW     8   COL    10   RATE     750.000    
 BOUNDARY    116   LAYER   1   ROW     8   COL    11   RATE     750.000    
 BOUNDARY    117   LAYER   1   ROW     8   COL    12   RATE     750.000    
 BOUNDARY    118   LAYER   1   ROW     8   COL    13   RATE     750.000    
 BOUNDARY    119   LAYER   1   ROW     8   COL    14   RATE     750.000    
 BOUNDARY    120   LAYER   1   ROW     8   COL    15   RATE     750.000    
 BOUNDARY    121   LAYER   1   ROW     9   COL     1   RATE     750.000    
 BOUNDARY    122   LAYER   1   ROW     9   COL     2   RATE     750.000    
 BOUNDARY    123   LAYER   1   ROW     9   COL     3   RATE     750.000    
 BOUNDARY    124   LAYER   1   ROW     9   COL     4   RATE     750.000    
 BOUNDARY    125   LAYER   1   ROW     9   COL     5   RATE     750.000    
 BOUNDARY    126   LAYER   1   ROW     9   COL     6   RATE     750.000    
 BOUNDARY    127   LAYER   1   ROW     9   COL     7   RATE     750.000    
 BOUNDARY    128   LAYER   1   ROW     9   COL     8   RATE     750.000    
 BOUNDARY    129   LAYER   1   ROW     9   COL     9   RATE     750.000    
 BOUNDARY    130   LAYER   1   ROW     9   COL    10   RATE     750.000    
 BOUNDARY    131   LAYER   1   ROW     9   COL    11   RATE     750.000    
 BOUNDARY    132   LAYER   1   ROW     9   COL    12   RATE     750.000    
 BOUNDARY    133   LAYER   1   ROW     9   COL    13   RATE     750.000    
 BOUNDARY    134   LAYER   1   ROW     9   COL    14   RATE     750.000    
 BOUNDARY    135   LAYER   1   ROW     9   COL    15   RATE     750.000    
 BOUNDARY    137   LAYER   1   ROW    10   COL     2   RATE     750.000    
 BOUNDARY    138   LAYER   1   ROW    10   COL     3   RATE     750.000    
 BOUNDARY    139   LAYER   1   ROW    10   COL     4   RATE     750.000    
 BOUNDARY    140   LAYER   1   ROW    10   COL     5   RATE     750.000    
 BOUNDARY    141   LAYER   1   ROW    10   COL     6   RATE     750.000    
 BOUNDARY    142   LAYER   1   ROW    10   COL     7   RATE     750.000    
 BOUNDARY    143   LAYER   1   ROW    10   COL     8   RATE     750.000    
 BOUNDARY    144   LAYER   1   ROW    10   COL     9   RATE     750.000    
 BOUNDARY    145   LAYER   1   ROW    10   COL    10   RATE     750.000    
 BOUNDARY    146   LAYER   1   ROW    10   COL    11   RATE     750.000    
 BOUNDARY    147   LAYER   1   ROW    10   COL    12   RATE     750.000    
 BOUNDARY    148   LAYER   1   ROW    10   COL    13   RATE     750.000    
 BOUNDARY    149   LAYER   1   ROW    10   COL    14   RATE     750.000    
 BOUNDARY    150   LAYER   1   ROW    10   COL    15   RATE     750.000    
 UBDSV4 SAVING ET SEGS          ON UNIT   1017 AT TIME STEP      8, STRESS PERIOD      6

 ET SEGS            PERIOD  6   STEP  8
 BOUNDARY      1   LAYER   1   ROW     1   COL    13   RATE    -84.9797      ET-1
 BOUNDARY      2   LAYER   1   ROW     2   COL    13   RATE    -160.879      ET-2
 BOUNDARY      3   LAYER   1   ROW     3   COL    13   RATE    -222.999      ET-3
 BOUNDARY      4   LAYER   1   ROW     4   COL    13   RATE    -272.269      ET-4
 BOUNDARY      5   LAYER   1   ROW     5   COL    13   RATE    -299.426      ET-5
 BOUNDARY      6   LAYER   1   ROW     6   COL    13   RATE    -298.620      ET-6
 BOUNDARY      7   LAYER   1   ROW     7   COL    13   RATE    -226.842      ET-7
 BOUNDARY      8   LAYER   1   ROW     8   COL    13   RATE    -178.553      ET-8
 BOUNDARY      9   LAYER   1   ROW     9   COL    13   RATE    -117.683      ET-9
 BOUNDARY     10   LAYER   1   ROW    10   COL    13   RATE    -43.9689      ET-10
 BOUNDARY     11   LAYER   1   ROW     1   COL    12   RATE    -138.285      ET-1
 BOUNDARY     12   LAYER   1   ROW     2   COL    12   RATE    -242.679      ET-2
 BOUNDARY     13   LAYER   1   ROW     3   COL    12   RATE    -308.354      ET-3
 BOUNDARY     14   LAYER   1   ROW     4   COL    12   RATE    -382.383      ET-4
 BOUNDARY     15   LAYER   1   ROW     5   COL    12   RATE    -426.682      ET-5
 BOUNDARY     16   LAYER   1   ROW     6   COL    12   RATE    -425.867      ET-6
 BOUNDARY     17   LAYER   1   ROW     7   COL    12   RATE    -319.209      ET-7
 BOUNDARY     18   LAYER   1   ROW     8   COL    12   RATE    -246.984      ET-8
 BOUNDARY     19   LAYER   1   ROW     9   COL    12   RATE    -183.303      ET-9
 BOUNDARY     20   LAYER   1   ROW    10   COL    12   RATE    -75.0108      ET-10
 UBDSV4 SAVING CONSTANT HEADS   ON UNIT   1017 AT TIME STEP      8, STRESS PERIOD      6

 CONSTANT HEADS     PERIOD  6   STEP  8
 BOUNDARY      1   LAYER   1   ROW     1   COL     1   RATE     2620.93      CHD-1
 BOUNDARY      2   LAYER   1   ROW     4   COL     1   RATE     4721.67    
 BOUNDARY      3   LAYER   1   ROW     5   COL     1   RATE     852.597      CHD_GP
 BOUNDARY      4   LAYER   1   ROW     6   COL     1   RATE     4312.02      CHD_GP
 BOUNDARY      5   LAYER   1   ROW    10   COL     1   RATE     1740.71      CHD-10

 HEAD WILL BE SAVED ON UNIT 1018 AT END OF TIME STEP    8, STRESS PERIOD    6
RIV   no.    1 value from time series:   101.15     for time:  10.60     to  10.80    
RIV   no.    2 value from time series:   101.15     for time:  10.60     to  10.80    
RIV   no.    3 value from time series:   101.15     for time:  10.60     to  10.80    
RIV   no.    4 value from time series:   101.15     for time:  10.60     to  10.80    
RIV   no.    5 value from time series:   101.15     for time:  10.60     to  10.80    
RIV   no.    6 value from time series:   101.15     for time:  10.60     to  10.80    
RIV   no.    7 value from time series:   101.15     for time:  10.60     to  10.80    
RIV   no.    8 value from time series:   101.15     for time:  10.60     to  10.80    
RIV   no.    9 value from time series:   101.15     for time:  10.60     to  10.80    
RIV   no.   10 value from time series:   101.15     for time:  10.60     to  10.80    
EVT   no.    1 value from time series:   1005.8     for time:  10.60     to  10.80    
EVT   no.    2 value from time series:   2011.5     for time:  10.60     to  10.80    
EVT   no.    3 value from time series:   3017.3     for time:  10.60     to  10.80    
EVT   no.    4 value from time series:   4023.0     for time:  10.60     to  10.80    
EVT   no.   10 value from time series:   502.88     for time:  10.60     to  10.80    
EVT   no.   11 value from time series:   1005.8     for time:  10.60     to  10.80    
EVT   no.   12 value from time series:   2011.5     for time:  10.60     to  10.80    
EVT   no.   13 value from time series:   3017.3     for time:  10.60     to  10.80    
EVT   no.   14 value from time series:   4023.0     for time:  10.60     to  10.80    
EVT   no.   20 value from time series:   502.88     for time:  10.60     to  10.80    
RIV   no.    1 value from time series:   101.15     for time:  10.60     to  10.80    
RIV   no.    2 value from time series:   101.15     for time:  10.60     to  10.80    
RIV   no.    3 value from time series:   101.15     for time:  10.60     to  10.80    
RIV   no.    4 value from time series:   101.15     for time:  10.60     to  10.80    
RIV   no.    5 value from time series:   101.15     for time:  10.60     to  10.80    
RIV   no.    6 value from time series:   101.15     for time:  10.60     to  10.80    
RIV   no.    7 value from time series:   101.15     for time:  10.60     to  10.80    
RIV   no.    8 value from time series:   101.15     for time:  10.60     to  10.80    
RIV   no.    9 value from time series:   101.15     for time:  10.60     to  10.80    
RIV   no.   10 value from time series:   101.15     for time:  10.60     to  10.80    
EVT   no.    1 value from time series:   1005.8     for time:  10.60     to  10.80    
EVT   no.    2 value from time series:   2011.5     for time:  10.60     to  10.80    
EVT   no.    3 value from time series:   3017.3     for time:  10.60     to  10.80    
EVT   no.    4 value from time series:   4023.0     for time:  10.60     to  10.80    
EVT   no.   10 value from time series:   502.88     for time:  10.60     to  10.80    
EVT   no.   11 value from time series:   1005.8     for time:  10.60     to  10.80    
EVT   no.   12 value from time series:   2011.5     for time:  10.60     to  10.80    
EVT   no.   13 value from time series:   3017.3     for time:  10.60     to  10.80    
EVT   no.   14 value from time series:   4023.0     for time:  10.60     to  10.80    
EVT   no.   20 value from time series:   502.88     for time:  10.60     to  10.80    

 OUTPUT CONTROL FOR STRESS PERIOD    6   TIME STEP    9
    SAVE BUDGET
    SAVE HEAD
    SAVE HEAD FOR ALL LAYERS
 UBDSV1 SAVING      STORAGE(SS) ON UNIT   1017 AT TIME STEP      9, STRESS PERIOD      6
 UBDSV1 SAVING      STORAGE(SY) ON UNIT   1017 AT TIME STEP      9, STRESS PERIOD      6
 UBDSV1 SAVING FLOW RIGHT FACE  ON UNIT   1017 AT TIME STEP      9, STRESS PERIOD      6
 UBDSV1 SAVING FLOW FRONT FACE  ON UNIT   1017 AT TIME STEP      9, STRESS PERIOD      6
 UBDSV1 SAVING FLOW LOWER FACE  ON UNIT   1017 AT TIME STEP      9, STRESS PERIOD      6
 UBDSV4 SAVING WELLS NEAR RIVER ON UNIT   1017 AT TIME STEP      9, STRESS PERIOD      6
 UBDSV4 SAVING RIVER            ON UNIT   1017 AT TIME STEP      9, STRESS PERIOD      6

 RIVER              PERIOD  6   STEP  9
 BOUNDARY      1   LAYER   1   ROW     1   COL    15   RATE    -9988.91    
 BOUNDARY      2   LAYER   1   ROW     2   COL    15   RATE    -9971.08      RIV2
 BOUNDARY      3   LAYER   1   ROW     3   COL    15   RATE    -9944.33      RIV3
 BOUNDARY      4   LAYER   1   ROW     4   COL    15   RATE    -9916.48    
 BOUNDARY      5   LAYER   1   ROW     5   COL    15   RATE    -9894.94    
 BOUNDARY      6   LAYER   1   ROW     6   COL    15   RATE    -9894.30    
 BOUNDARY      7   LAYER   1   ROW     7   COL    15   RATE    -9915.06      RIVX
 BOUNDARY      8   LAYER   1   ROW     8   COL    15   RATE    -9945.91      RIVX
 BOUNDARY      9   LAYER   1   ROW     9   COL    15   RATE    -9978.15      RIVX
 BOUNDARY     10   LAYER   1   ROW    10   COL    15   RATE    -10001.1    

 GHB LAKES          PERIOD  6   STEP  9
 BOUNDARY      1   LAYER   1   ROW     3   COL     1   RATE    -8049.15    
 BOUNDARY      2   LAYER   1   ROW     7   COL     1   RATE     4214.30      GHB2_UPPER
 BOUNDARY      3   LAYER   1   ROW     7   COL     1   RATE    -11064.1      GHB2_LOWER
 UBDSV4 SAVING RECHARGE         ON UNIT   1017 AT TIME STEP      9, STRESS PERIOD      6

 RECHARGE           PERIOD  6   STEP  9
 BOUNDARY      2   LAYER   1   ROW     1   COL     2   RATE     750.000    
 BOUNDARY      3   LAYER   1   ROW     1   COL     3   RATE     750.000    
 BOUNDARY      4   LAYER   1   ROW     1   COL     4   RATE     750.000    
 BOUNDARY      5   LAYER   1   ROW     1   COL     5   RATE     750.000    
 BOUNDARY      6   LAYER   1   ROW     1   COL     6   RATE     750.000    
 BOUNDARY      7   LAYER   1   ROW     1   COL     7   RATE     750.000    
 BOUNDARY      8   LAYER   1   ROW     1   COL     8   RATE     750.000    
 BOUNDARY      9   LAYER   1   ROW     1   COL     9   RATE     750.000    
 BOUNDARY     10   LAYER   1   ROW     1   COL    10   RATE     750.000    
 BOUNDARY     11   LAYER   1   ROW     1   COL    11   RATE     750.000    
 BOUNDARY     12   LAYER   1   ROW     1   COL    12   RATE     750.000    
 BOUNDARY     13   LAYER   1   ROW     1   COL    13   RATE     750.000    
 BOUNDARY     14   LAYER   1   ROW     1   COL    14   RATE     750.000    
 BOUNDARY     15   LAYER   1   ROW     1   COL    15   RATE     750.000    
 BOUNDARY     16   LAYER   1   ROW     2   COL     1   RATE     750.000    
 BOUNDARY     17   LAYER   1   ROW     2   COL     2   RATE     750.000    
 BOUNDARY     18   LAYER   1   ROW     2   COL     3   RATE     750.000    
 BOUNDARY     19   LAYER   1   ROW     2   COL     4   RATE     750.000    
 BOUNDARY     20   LAYER   1   ROW     2   COL     5   RATE     750.000    
 BOUNDARY     21   LAYER   1   ROW     2   COL     6   RATE     750.000    
 BOUNDARY     22   LAYER   1   ROW     2   COL     7   RATE     750.000    
 BOUNDARY     23   LAYER   1   ROW     2   COL     8   RATE     750.000    
 BOUNDARY     24   LAYER   1   ROW     2   COL     9   RATE     750.000    
 BOUNDARY     25   LAYER   1   ROW     2   COL    10   RATE     750.000    
 BOUNDARY     26   LAYER   1   ROW     2   COL    11   RATE     750.000    
 BOUNDARY     27   LAYER   1   ROW     2   COL    12   RATE     750.000    
 BOUNDARY     28   LAYER   1   ROW     2   COL    13   RATE     750.000    
 BOUNDARY     29   LAYER   1   ROW     2   COL    14   RATE     750.000    
 BOUNDARY     30   LAYER   1   ROW     2   COL    15   RATE     750.000    
 BOUNDARY     31   LAYER   1   ROW     3   COL     1   RATE     750.000    
 BOUNDARY     32   LAYER   1   ROW     3   COL     2   RATE     750.000    
 BOUNDARY     33   LAYER   1   ROW     3   COL     3   RATE     750.000    
 BOUNDARY     34   LAYER   1   ROW     3   COL     4   RATE     750.000    
 BOUNDARY     35   LAYER   1   ROW     3   COL     5   RATE     750.000    
 BOUNDARY     36   LAYER   1   ROW     3   COL     6   RATE     750.000    
 BOUNDARY     37   LAYER   1   ROW     3   COL     7   RATE     750.000    
 BOUNDARY     38   LAYER   1   ROW     3   COL     8   RATE     750.000    
 BOUNDARY     39   LAYER   1   ROW     3   COL     9   RATE     750.000    
 BOUNDARY     40   LAYER   1   ROW     3   COL    10   RATE     750.000    
 BOUNDARY     41   LAYER   1   ROW     3   COL    11   RATE     750.000    
 BOUNDARY     42   LAYER   1   ROW     3   COL    12   RATE     750.000    
 BOUNDARY     43   LAYER   1   ROW     3   COL    13   RATE     750.000    
 BOUNDARY     44   LAYER   1   ROW     3   COL    14   RATE     750.000    
 BOUNDARY     45   LAYER   1   ROW     3   COL    15   RATE     750.000    
 BOUNDARY     47   LAYER   1   ROW     4   COL     2   RATE     750.000    
 BOUNDARY     48   LAYER   1   ROW     4   COL     3   RATE     750.000    
 BOUNDARY     49   LAYER   1   ROW     4   COL     4   RATE     750.000    
 BOUNDARY     50   LAYER   1   ROW     4   COL     5   RATE     750.000    
 BOUNDARY     51   LAYER   1   ROW     4   COL     6   RATE     750.000    
 BOUNDARY     52   LAYER   1   ROW     4   COL     7   RATE     750.000    
 BOUNDARY     53   LAYER   1   ROW     4   COL     8   RATE     750.000    
 BOUNDARY     54   LAYER   1   ROW     4   COL     9   RATE     750.000    
 BOUNDARY     55   LAYER   1   ROW     4   COL    10   RATE     750.000    
 BOUNDARY     56   LAYER   1   ROW     4   COL    11   RATE     750.000    
 BOUNDARY     57   LAYER   1   ROW     4   COL    12   RATE     750.000    
 BOUNDARY     58   LAYER   1   ROW     4   COL    13   RATE     750.000    
 BOUNDARY     59   LAYER   1   ROW     4   COL    14   RATE     750.000    
 BOUNDARY     60   LAYER   1   ROW     4   COL    15   RATE     750.000    
 BOUNDARY     62   LAYER   1   ROW     5   COL     2   RATE     750.000    
 BOUNDARY     63   LAYER   1   ROW     5   COL     3   RATE     750.000    
 BOUNDARY     64   LAYER   1   ROW     5   COL     4   RATE     750.000    
 BOUNDARY     65   LAYER   1   ROW     5   COL     5   RATE     750.000    
 BOUNDARY     66   LAYER   1   ROW     5   COL     6   RATE     750.000    
 BOUNDARY     67   LAYER   1   ROW     5   COL     7   RATE     750.000    
 BOUNDARY     68   LAYER   1   ROW     5   COL     8   RATE     750.000    
 BOUNDARY     69   LAYER   1   ROW     5   COL     9   RATE     750.000    
 BOUNDARY     70   LAYER   1   ROW     5   COL    10   RATE     750.000    
 BOUNDARY     71   LAYER   1   ROW     5   COL    11   RATE     750.000    
 BOUNDARY     72   LAYER   1   ROW     5   COL    12   RATE     750.000    
 BOUNDARY     73   LAYER   1   ROW     5   COL    13   RATE     750.000    
 BOUNDARY     74   LAYER   1   ROW     5   COL    14   RATE     750.000    
 BOUNDARY     75   LAYER   1   ROW     5   COL    15   RATE     750.000    
 BOUNDARY     77   LAYER   1   ROW     6   COL     2   RATE     750.000    
 BOUNDARY     78   LAYER   1   ROW     6   COL     3   RATE     750.000    
 BOUNDARY     79   LAYER   1   ROW     6   COL     4   RATE     750.000    
 BOUNDARY     80   LAYER   1   ROW     6   COL     5   RATE     750.000    
 BOUNDARY     81   LAYER   1   ROW     6   COL     6   RATE     750.000    
 BOUNDARY     82   LAYER   1   ROW     6   COL     7   RATE     750.000    
 BOUNDARY     83   LAYER   1   ROW     6   COL     8   RATE     750.000    
 BOUNDARY     84   LAYER   1   ROW     6   COL     9   RATE     750.000    
 BOUNDARY     85   LAYER   1   ROW     6   COL    10   RATE     750.000    
 BOUNDARY     86   LAYER   1   ROW     6   COL    11   RATE     750.000    
 BOUNDARY     87   LAYER   1   ROW     6   COL    12   RATE     750.000    
 BOUNDARY     88   LAYER   1   ROW     6   COL    13   RATE     750.000    
 BOUNDARY     89   LAYER   1   ROW     6   COL    14   RATE     750.000    
 BOUNDARY     90   LAYER   1   ROW     6   COL    15   RATE     750.000    
 BOUNDARY     91   LAYER   1   ROW     7   COL     1   RATE     750.000    
 BOUNDARY     92   LAYER   1   ROW     7   COL     2   RATE     750.000    
 BOUNDARY     93   LAYER   1   ROW     7   COL     3   RATE     750.000    
 BOUNDARY     94   LAYER   1   ROW     7   COL     4   RATE     750.000    
 BOUNDARY     95   LAYER   1   ROW     7   COL     5   RATE     750.000    
 BOUNDARY     96   LAYER   1   ROW     7   COL     6   RATE     750.000    
 BOUNDARY     97   LAYER   1   ROW     7   COL     7   RATE     750.000    
 BOUNDARY     98   LAYER   1   ROW     7   COL     8   RATE     750.000    
 BOUNDARY     99   LAYER   1   ROW     7   COL     9   RATE     750.000    
 BOUNDARY    100   LAYER   1   ROW     7   COL    10   RATE     750.000    
 BOUNDARY    101   LAYER   1   ROW     7   COL    11   RATE     750.000    
 BOUNDARY    102   LAYER   1   ROW     7   COL    12   RATE     750.000    
 BOUNDARY    103   LAYER   1   ROW     7   COL    13   RATE     750.000    
 BOUNDARY    104   LAYER   1   ROW     7   COL    14   RATE     750.000    
 BOUNDARY    105   LAYER   1   ROW     7   COL    15   RATE     750.000    
 BOUNDARY    106   LAYER   1   ROW     8   COL     1   RATE     750.000    
 BOUNDARY    107   LAYER   1   ROW     8   COL     2   RATE     750.000    
 BOUNDARY    108   LAYER   1   ROW     8   COL     3   RATE     750.000    
 BOUNDARY    109   LAYER   1   ROW     8   COL     4   RATE     750.000    
 BOUNDARY    110   LAYER   1   ROW     8   COL     5   RATE     750.000    
 BOUNDARY    111   LAYER   1   ROW     8   COL     6   RATE     750.000    
 BOUNDARY    112   LAYER   1   ROW     8   COL     7   RATE     750.000    
 BOUNDARY    113   LAYER   1   ROW     8   COL     8   RATE     750.000    
 BOUNDARY    114   LAYER   1   ROW     8   COL     9   RATE     750.000    
 BOUNDARY    115   LAYER   1   ROW     8   COL    10   RATE     750.000    
 BOUNDARY    116   LAYER   1   ROW     8   COL    11   RATE     750.000    
 BOUNDARY    117   LAYER   1   ROW     8   COL    12   RATE     750.000    
 BOUNDARY    118   LAYER   1   ROW     8   COL    13   RATE     750.000    
 BOUNDARY    119   LAYER   1   ROW     8   COL    14   RATE     750.000    
 BOUNDARY    120   LAYER   1   ROW     8   COL    15   RATE     750.000    
 BOUNDARY    121   LAYER   1   ROW     9   COL     1   RATE     750.000    
 BOUNDARY    122   LAYER   1   ROW     9   COL     2   RATE     750.000    
 BOUNDARY    123   LAYER   1   ROW     9   COL     3   RATE     750.000    
 BOUNDARY    124   LAYER   1   ROW     9   COL     4   RATE     750.000    
 BOUNDARY    125   LAYER   1   ROW     9   COL     5   RATE     750.000    
 BOUNDARY    126   LAYER   1   ROW     9   COL     6   RATE     750.000    
 BOUNDARY    127   LAYER   1   ROW     9   COL     7   RATE     750.000    
 BOUNDARY    128   LAYER   1   ROW     9   COL     8   RATE     750.000    
 BOUNDARY    129   LAYER   1   ROW     9   COL     9   RATE     750.000    
 BOUNDARY    130   LAYER   1   ROW     9   COL    10   RATE     750.000    
 BOUNDARY    131   LAYER   1   ROW     9   COL    11   RATE     750.000    
 BOUNDARY    132   LAYER   1   ROW     9   COL    12   RATE     750.000    
 BOUNDARY    133   LAYER   1   ROW     9   COL    13   RATE     750.000    
 BOUNDARY    134   LAYER   1   ROW     9   COL    14   RATE     750.000    
 BOUNDARY    135   LAYER   1   ROW     9   COL    15   RATE     750.000    
 BOUNDARY    137   LAYER   1   ROW    10   COL     2   RATE     750.000    
 BOUNDARY    138   LAYER   1   ROW    10   COL     3   RATE     750.000    
 BOUNDARY    139   LAYER   1   ROW    10   COL     4   RATE     750.000    
 BOUNDARY    140   LAYER   1   ROW    10   COL     5   RATE     750.000    
 BOUNDARY    141   LAYER   1   ROW    10   COL     6   RATE     750.000    
 BOUNDARY    142   LAYER   1   ROW    10   COL     7   RATE     750.000    
 BOUNDARY    143   LAYER   1   ROW    10   COL     8   RATE     750.000    
 BOUNDARY    144   LAYER   1   ROW    10   COL     9   RATE     750.000    
 BOUNDARY    145   LAYER   1   ROW    10   COL    10   RATE     750.000    
 BOUNDARY    146   LAYER   1   ROW    10   COL    11   RATE     750.000    
 BOUNDARY    147   LAYER   1   ROW    10   COL    12   RATE     750.000    
 BOUNDARY    148   LAYER   1   ROW    10   COL    13   RATE     750.000    
 BOUNDARY    149   LAYER   1   ROW    10   COL    14   RATE     750.000    
 BOUNDARY    150   LAYER   1   ROW    10   COL    15   RATE     750.000    
 UBDSV4 SAVING ET SEGS          ON UNIT   1017 AT TIME STEP      9, STRESS PERIOD      6

 ET SEGS            PERIOD  6   STEP  9
 BOUNDARY      1   LAYER   1   ROW     1   COL    13   RATE    -81.8031      ET-1
 BOUNDARY      2   LAYER   1   ROW     2   COL    13   RATE    -154.872      ET-2
 BOUNDARY      3   LAYER   1   ROW     3   COL    13   RATE    -214.690      ET-3
 BOUNDARY      4   LAYER   1   ROW     4   COL    13   RATE    -262.156      ET-4
 BOUNDARY      5   LAYER   1   ROW     5   COL    13   RATE    -299.982      ET-5
 BOUNDARY      6   LAYER   1   ROW     6   COL    13   RATE    -299.179      ET-6
 BOUNDARY      7   LAYER   1   ROW     7   COL    13   RATE    -227.238      ET-7
 BOUNDARY      8   LAYER   1   ROW     8   COL    13   RATE    -178.838      ET-8
 BOUNDARY      9   LAYER   1   ROW     9   COL    13   RATE    -117.855      ET-9
 BOUNDARY     10   LAYER   1   ROW    10   COL    13   RATE    -42.3243      ET-10
 BOUNDARY     11   LAYER   1   ROW     1   COL    12   RATE    -133.286      ET-1
 BOUNDARY     12   LAYER   1   ROW     2   COL    12   RATE    -233.966      ET-2
 BOUNDARY     13   LAYER   1   ROW     3   COL    12   RATE    -296.723      ET-3
 BOUNDARY     14   LAYER   1   ROW     4   COL    12   RATE    -367.984      ET-4
 BOUNDARY     15   LAYER   1   ROW     5   COL    12   RATE    -427.218      ET-5
 BOUNDARY     16   LAYER   1   ROW     6   COL    12   RATE    -426.408      ET-6
 BOUNDARY     17   LAYER   1   ROW     7   COL    12   RATE    -319.592      ET-7
 BOUNDARY     18   LAYER   1   ROW     8   COL    12   RATE    -247.259      ET-8
 BOUNDARY     19   LAYER   1   ROW     9   COL    12   RATE    -183.844      ET-9
 BOUNDARY     20   LAYER   1   ROW    10   COL    12   RATE    -72.2899      ET-10
 UBDSV4 SAVING CONSTANT HEADS   ON UNIT   1017 AT TIME STEP      9, STRESS PERIOD      6

 CONSTANT HEADS     PERIOD  6   STEP  9
 BOUNDARY      1   LAYER   1   ROW     1   COL     1   RATE     2620.16      CHD-1
 BOUNDARY      2   LAYER   1   ROW     4   COL     1   RATE     4721.62    
 BOUNDARY      3   LAYER   1   ROW     5   COL     1   RATE     853.054      CHD_GP
 BOUNDARY      4   LAYER   1   ROW     6   COL     1   RATE     4312.20      CHD_GP
 BOUNDARY      5   LAYER   1   ROW    10   COL     1   RATE     1740.34      CHD-10

 HEAD WILL BE SAVED ON UNIT 1018 AT END OF TIME STEP    9, STRESS PERIOD    6
RIV   no.    1 value from time series:   101.05     for time:  10.80     to  11.00    
RIV   no.    2 value from time series:   101.05     for time:  10.80     to  11.00    
RIV   no.    3 value from time series:   101.05     for time:  10.80     to  11.00    
RIV   no.    4 value from time series:   101.05     for time:  10.80     to  11.00    
RIV   no.    5 value from time series:   101.05     for time:  10.80     to  11.00    
RIV   no.    6 value from time series:   101.05     for time:  10.80     to  11.00    
RIV   no.    7 value from time series:   101.05     for time:  10.80     to  11.00    
RIV   no.    8 value from time series:   101.05     for time:  10.80     to  11.00    
RIV   no.    9 value from time series:   101.05     for time:  10.80     to  11.00    
RIV   no.   10 value from time series:   101.05     for time:  10.80     to  11.00    
EVT   no.    1 value from time series:   965.25     for time:  10.80     to  11.00    
EVT   no.    2 value from time series:   1930.5     for time:  10.80     to  11.00    
EVT   no.    3 value from time series:   2895.8     for time:  10.80     to  11.00    
EVT   no.    4 value from time series:   3861.0     for time:  10.80     to  11.00    
EVT   no.   10 value from time series:   482.63     for time:  10.80     to  11.00    
EVT   no.   11 value from time series:   965.25     for time:  10.80     to  11.00    
EVT   no.   12 value from time series:   1930.5     for time:  10.80     to  11.00    
EVT   no.   13 value from time series:   2895.8     for time:  10.80     to  11.00    
EVT   no.   14 value from time series:   3861.0     for time:  10.80     to  11.00    
EVT   no.   20 value from time series:   482.63     for time:  10.80     to  11.00    
RIV   no.    1 value from time series:   101.05     for time:  10.80     to  11.00    
RIV   no.    2 value from time series:   101.05     for time:  10.80     to  11.00    
RIV   no.    3 value from time series:   101.05     for time:  10.80     to  11.00    
RIV   no.    4 value from time series:   101.05     for time:  10.80     to  11.00    
RIV   no.    5 value from time series:   101.05     for time:  10.80     to  11.00    
RIV   no.    6 value from time series:   101.05     for time:  10.80     to  11.00    
RIV   no.    7 value from time series:   101.05     for time:  10.80     to  11.00    
RIV   no.    8 value from time series:   101.05     for time:  10.80     to  11.00    
RIV   no.    9 value from time series:   101.05     for time:  10.80     to  11.00    
RIV   no.   10 value from time series:   101.05     for time:  10.80     to  11.00    
EVT   no.    1 value from time series:   965.25     for time:  10.80     to  11.00    
EVT   no.    2 value from time series:   1930.5     for time:  10.80     to  11.00    
EVT   no.    3 value from time series:   2895.8     for time:  10.80     to  11.00    
EVT   no.    4 value from time series:   3861.0     for time:  10.80     to  11.00    
EVT   no.   10 value from time series:   482.63     for time:  10.80     to  11.00    
EVT   no.   11 value from time series:   965.25     for time:  10.80     to  11.00    
EVT   no.   12 value from time series:   1930.5     for time:  10.80     to  11.00    
EVT   no.   13 value from time series:   2895.8     for time:  10.80     to  11.00    
EVT   no.   14 value from time series:   3861.0     for time:  10.80     to  11.00    
EVT   no.   20 value from time series:   482.63     for time:  10.80     to  11.00    

 OUTPUT CONTROL FOR STRESS PERIOD    6   TIME STEP   10
    PRINT BUDGET
    PRINT HEAD
    PRINT HEAD FOR ALL LAYERS
    SAVE BUDGET
    SAVE HEAD
    SAVE HEAD FOR ALL LAYERS
 UBDSV1 SAVING      STORAGE(SS) ON UNIT   1017 AT TIME STEP     10, STRESS PERIOD      6
 UBDSV1 SAVING      STORAGE(SY) ON UNIT   1017 AT TIME STEP     10, STRESS PERIOD      6
 UBDSV1 SAVING FLOW RIGHT FACE  ON UNIT   1017 AT TIME STEP     10, STRESS PERIOD      6
 UBDSV1 SAVING FLOW FRONT FACE  ON UNIT   1017 AT TIME STEP     10, STRESS PERIOD      6
 UBDSV1 SAVING FLOW LOWER FACE  ON UNIT   1017 AT TIME STEP     10, STRESS PERIOD      6
 UBDSV4 SAVING WELLS NEAR RIVER ON UNIT   1017 AT TIME STEP     10, STRESS PERIOD      6
 UBDSV4 SAVING RIVER            ON UNIT   1017 AT TIME STEP     10, STRESS PERIOD      6

 RIVER              PERIOD  6   STEP 10
 BOUNDARY      1   LAYER   1   ROW     1   COL    15   RATE    -10232.2    
 BOUNDARY      2   LAYER   1   ROW     2   COL    15   RATE    -10214.3      RIV2
 BOUNDARY      3   LAYER   1   ROW     3   COL    15   RATE    -10187.5      RIV3
 BOUNDARY      4   LAYER   1   ROW     4   COL    15   RATE    -10159.7    
 BOUNDARY      5   LAYER   1   ROW     5   COL    15   RATE    -10138.1    
 BOUNDARY      6   LAYER   1   ROW     6   COL    15   RATE    -10137.5    
 BOUNDARY      7   LAYER   1   ROW     7   COL    15   RATE    -10158.3      RIVX
 BOUNDARY      8   LAYER   1   ROW     8   COL    15   RATE    -10189.1      RIVX
 BOUNDARY      9   LAYER   1   ROW     9   COL    15   RATE    -10221.4      RIVX
 BOUNDARY     10   LAYER   1   ROW    10   COL    15   RATE    -10244.4    

 GHB LAKES          PERIOD  6   STEP 10
 BOUNDARY      1   LAYER   1   ROW     3   COL     1   RATE    -8052.58    
 BOUNDARY      2   LAYER   1   ROW     7   COL     1   RATE     4211.54      GHB2_UPPER
 BOUNDARY      3   LAYER   1   ROW     7   COL     1   RATE    -11065.1      GHB2_LOWER
 UBDSV4 SAVING RECHARGE         ON UNIT   1017 AT TIME STEP     10, STRESS PERIOD      6

 RECHARGE           PERIOD  6   STEP 10
 BOUNDARY      2   LAYER   1   ROW     1   COL     2   RATE     750.000    
 BOUNDARY      3   LAYER   1   ROW     1   COL     3   RATE     750.000    
 BOUNDARY      4   LAYER   1   ROW     1   COL     4   RATE     750.000    
 BOUNDARY      5   LAYER   1   ROW     1   COL     5   RATE     750.000    
 BOUNDARY      6   LAYER   1   ROW     1   COL     6   RATE     750.000    
 BOUNDARY      7   LAYER   1   ROW     1   COL     7   RATE     750.000    
 BOUNDARY      8   LAYER   1   ROW     1   COL     8   RATE     750.000    
 BOUNDARY      9   LAYER   1   ROW     1   COL     9   RATE     750.000    
 BOUNDARY     10   LAYER   1   ROW     1   COL    10   RATE     750.000    
 BOUNDARY     11   LAYER   1   ROW     1   COL    11   RATE     750.000    
 BOUNDARY     12   LAYER   1   ROW     1   COL    12   RATE     750.000    
 BOUNDARY     13   LAYER   1   ROW     1   COL    13   RATE     750.000    
 BOUNDARY     14   LAYER   1   ROW     1   COL    14   RATE     750.000    
 BOUNDARY     15   LAYER   1   ROW     1   COL    15   RATE     750.000    
 BOUNDARY     16   LAYER   1   ROW     2   COL     1   RATE     750.000    
 BOUNDARY     17   LAYER   1   ROW     2   COL     2   RATE     750.000    
 BOUNDARY     18   LAYER   1   ROW     2   COL     3   RATE     750.000    
 BOUNDARY     19   LAYER   1   ROW     2   COL     4   RATE     750.000    
 BOUNDARY     20   LAYER   1   ROW     2   COL     5   RATE     750.000    
 BOUNDARY     21   LAYER   1   ROW     2   COL     6   RATE     750.000    
 BOUNDARY     22   LAYER   1   ROW     2   COL     7   RATE     750.000    
 BOUNDARY     23   LAYER   1   ROW     2   COL     8   RATE     750.000    
 BOUNDARY     24   LAYER   1   ROW     2   COL     9   RATE     750.000    
 BOUNDARY     25   LAYER   1   ROW     2   COL    10   RATE     750.000    
 BOUNDARY     26   LAYER   1   ROW     2   COL    11   RATE     750.000    
 BOUNDARY     27   LAYER   1   ROW     2   COL    12   RATE     750.000    
 BOUNDARY     28   LAYER   1   ROW     2   COL    13   RATE     750.000    
 BOUNDARY     29   LAYER   1   ROW     2   COL    14   RATE     750.000    
 BOUNDARY     30   LAYER   1   ROW     2   COL    15   RATE     750.000    
 BOUNDARY     31   LAYER   1   ROW     3   COL     1   RATE     750.000    
 BOUNDARY     32   LAYER   1   ROW     3   COL     2   RATE     750.000    
 BOUNDARY     33   LAYER   1   ROW     3   COL     3   RATE     750.000    
 BOUNDARY     34   LAYER   1   ROW     3   COL     4   RATE     750.000    
 BOUNDARY     35   LAYER   1   ROW     3   COL     5   RATE     750.000    
 BOUNDARY     36   LAYER   1   ROW     3   COL     6   RATE     750.000    
 BOUNDARY     37   LAYER   1   ROW     3   COL     7   RATE     750.000    
 BOUNDARY     38   LAYER   1   ROW     3   COL     8   RATE     750.000    
 BOUNDARY     39   LAYER   1   ROW     3   COL     9   RATE     750.000    
 BOUNDARY     40   LAYER   1   ROW     3   COL    10   RATE     750.000    
 BOUNDARY     41   LAYER   1   ROW     3   COL    11   RATE     750.000    
 BOUNDARY     42   LAYER   1   ROW     3   COL    12   RATE     750.000    
 BOUNDARY     43   LAYER   1   ROW     3   COL    13   RATE     750.000    
 BOUNDARY     44   LAYER   1   ROW     3   COL    14   RATE     750.000    
 BOUNDARY     45   LAYER   1   ROW     3   COL    15   RATE     750.000    
 BOUNDARY     47   LAYER   1   ROW     4   COL     2   RATE     750.000    
 BOUNDARY     48   LAYER   1   ROW     4   COL     3   RATE     750.000    
 BOUNDARY     49   LAYER   1   ROW     4   COL     4   RATE     750.000    
 BOUNDARY     50   LAYER   1   ROW     4   COL     5   RATE     750.000    
 BOUNDARY     51   LAYER   1   ROW     4   COL     6   RATE     750.000    
 BOUNDARY     52   LAYER   1   ROW     4   COL     7   RATE     750.000    
 BOUNDARY     53   LAYER   1   ROW     4   COL     8   RATE     750.000    
 BOUNDARY     54   LAYER   1   ROW     4   COL     9   RATE     750.000    
 BOUNDARY     55   LAYER   1   ROW     4   COL    10   RATE     750.000    
 BOUNDARY     56   LAYER   1   ROW     4   COL    11   RATE     750.000    
 BOUNDARY     57   LAYER   1   ROW     4   COL    12   RATE     750.000    
 BOUNDARY     58   LAYER   1   ROW     4   COL    13   RATE     750.000    
 BOUNDARY     59   LAYER   1   ROW     4   COL    14   RATE     750.000    
 BOUNDARY     60   LAYER   1   ROW     4   COL    15   RATE     750.000    
 BOUNDARY     62   LAYER   1   ROW     5   COL     2   RATE     750.000    
 BOUNDARY     63   LAYER   1   ROW     5   COL     3   RATE     750.000    
 BOUNDARY     64   LAYER   1   ROW     5   COL     4   RATE     750.000    
 BOUNDARY     65   LAYER   1   ROW     5   COL     5   RATE     750.000    
 BOUNDARY     66   LAYER   1   ROW     5   COL     6   RATE     750.000    
 BOUNDARY     67   LAYER   1   ROW     5   COL     7   RATE     750.000    
 BOUNDARY     68   LAYER   1   ROW     5   COL     8   RATE     750.000    
 BOUNDARY     69   LAYER   1   ROW     5   COL     9   RATE     750.000    
 BOUNDARY     70   LAYER   1   ROW     5   COL    10   RATE     750.000    
 BOUNDARY     71   LAYER   1   ROW     5   COL    11   RATE     750.000    
 BOUNDARY     72   LAYER   1   ROW     5   COL    12   RATE     750.000    
 BOUNDARY     73   LAYER   1   ROW     5   COL    13   RATE     750.000    
 BOUNDARY     74   LAYER   1   ROW     5   COL    14   RATE     750.000    
 BOUNDARY     75   LAYER   1   ROW     5   COL    15   RATE     750.000    
 BOUNDARY     77   LAYER   1   ROW     6   COL     2   RATE     750.000    
 BOUNDARY     78   LAYER   1   ROW     6   COL     3   RATE     750.000    
 BOUNDARY     79   LAYER   1   ROW     6   COL     4   RATE     750.000    
 BOUNDARY     80   LAYER   1   ROW     6   COL     5   RATE     750.000    
 BOUNDARY     81   LAYER   1   ROW     6   COL     6   RATE     750.000    
 BOUNDARY     82   LAYER   1   ROW     6   COL     7   RATE     750.000    
 BOUNDARY     83   LAYER   1   ROW     6   COL     8   RATE     750.000    
 BOUNDARY     84   LAYER   1   ROW     6   COL     9   RATE     750.000    
 BOUNDARY     85   LAYER   1   ROW     6   COL    10   RATE     750.000    
 BOUNDARY     86   LAYER   1   ROW     6   COL    11   RATE     750.000    
 BOUNDARY     87   LAYER   1   ROW     6   COL    12   RATE     750.000    
 BOUNDARY     88   LAYER   1   ROW     6   COL    13   RATE     750.000    
 BOUNDARY     89   LAYER   1   ROW     6   COL    14   RATE     750.000    
 BOUNDARY     90   LAYER   1   ROW     6   COL    15   RATE     750.000    
 BOUNDARY     91   LAYER   1   ROW     7   COL     1   RATE     750.000    
 BOUNDARY     92   LAYER   1   ROW     7   COL     2   RATE     750.000    
 BOUNDARY     93   LAYER   1   ROW     7   COL     3   RATE     750.000    
 BOUNDARY     94   LAYER   1   ROW     7   COL     4   RATE     750.000    
 BOUNDARY     95   LAYER   1   ROW     7   COL     5   RATE     750.000    
 BOUNDARY     96   LAYER   1   ROW     7   COL     6   RATE     750.000    
 BOUNDARY     97   LAYER   1   ROW     7   COL     7   RATE     750.000    
 BOUNDARY     98   LAYER   1   ROW     7   COL     8   RATE     750.000    
 BOUNDARY     99   LAYER   1   ROW     7   COL     9   RATE     750.000    
 BOUNDARY    100   LAYER   1   ROW     7   COL    10   RATE     750.000    
 BOUNDARY    101   LAYER   1   ROW     7   COL    11   RATE     750.000    
 BOUNDARY    102   LAYER   1   ROW     7   COL    12   RATE     750.000    
 BOUNDARY    103   LAYER   1   ROW     7   COL    13   RATE     750.000    
 BOUNDARY    104   LAYER   1   ROW     7   COL    14   RATE     750.000    
 BOUNDARY    105   LAYER   1   ROW     7   COL    15   RATE     750.000    
 BOUNDARY    106   LAYER   1   ROW     8   COL     1   RATE     750.000    
 BOUNDARY    107   LAYER   1   ROW     8   COL     2   RATE     750.000    
 BOUNDARY    108   LAYER   1   ROW     8   COL     3   RATE     750.000    
 BOUNDARY    109   LAYER   1   ROW     8   COL     4   RATE     750.000    
 BOUNDARY    110   LAYER   1   ROW     8   COL     5   RATE     750.000    
 BOUNDARY    111   LAYER   1   ROW     8   COL     6   RATE     750.000    
 BOUNDARY    112   LAYER   1   ROW     8   COL     7   RATE     750.000    
 BOUNDARY    113   LAYER   1   ROW     8   COL     8   RATE     750.000    
 BOUNDARY    114   LAYER   1   ROW     8   COL     9   RATE     750.000    
 BOUNDARY    115   LAYER   1   ROW     8   COL    10   RATE     750.000    
 BOUNDARY    116   LAYER   1   ROW     8   COL    11   RATE     750.000    
 BOUNDARY    117   LAYER   1   ROW     8   COL    12   RATE     750.000    
 BOUNDARY    118   LAYER   1   ROW     8   COL    13   RATE     750.000    
 BOUNDARY    119   LAYER   1   ROW     8   COL    14   RATE     750.000    
 BOUNDARY    120   LAYER   1   ROW     8   COL    15   RATE     750.000    
 BOUNDARY    121   LAYER   1   ROW     9   COL     1   RATE     750.000    
 BOUNDARY    122   LAYER   1   ROW     9   COL     2   RATE     750.000    
 BOUNDARY    123   LAYER   1   ROW     9   COL     3   RATE     750.000    
 BOUNDARY    124   LAYER   1   ROW     9   COL     4   RATE     750.000    
 BOUNDARY    125   LAYER   1   ROW     9   COL     5   RATE     750.000    
 BOUNDARY    126   LAYER   1   ROW     9   COL     6   RATE     750.000    
 BOUNDARY    127   LAYER   1   ROW     9   COL     7   RATE     750.000    
 BOUNDARY    128   LAYER   1   ROW     9   COL     8   RATE     750.000    
 BOUNDARY    129   LAYER   1   ROW     9   COL     9   RATE     750.000    
 BOUNDARY    130   LAYER   1   ROW     9   COL    10   RATE     750.000    
 BOUNDARY    131   LAYER   1   ROW     9   COL    11   RATE     750.000    
 BOUNDARY    132   LAYER   1   ROW     9   COL    12   RATE     750.000    
 BOUNDARY    133   LAYER   1   ROW     9   COL    13   RATE     750.000    
 BOUNDARY    134   LAYER   1   ROW     9   COL    14   RATE     750.000    
 BOUNDARY    135   LAYER   1   ROW     9   COL    15   RATE     750.000    
 BOUNDARY    137   LAYER   1   ROW    10   COL     2   RATE     750.000    
 BOUNDARY    138   LAYER   1   ROW    10   COL     3   RATE     750.000    
 BOUNDARY    139   LAYER   1   ROW    10   COL     4   RATE     750.000    
 BOUNDARY    140   LAYER   1   ROW    10   COL     5   RATE     750.000    
 BOUNDARY    141   LAYER   1   ROW    10   COL     6   RATE     750.000    
 BOUNDARY    142   LAYER   1   ROW    10   COL     7   RATE     750.000    
 BOUNDARY    143   LAYER   1   ROW    10   COL     8   RATE     750.000    
 BOUNDARY    144   LAYER   1   ROW    10   COL     9   RATE     750.000    
 BOUNDARY    145   LAYER   1   ROW    10   COL    10   RATE     750.000    
 BOUNDARY    146   LAYER   1   ROW    10   COL    11   RATE     750.000    
 BOUNDARY    147   LAYER   1   ROW    10   COL    12   RATE     750.000    
 BOUNDARY    148   LAYER   1   ROW    10   COL    13   RATE     750.000    
 BOUNDARY    149   LAYER   1   ROW    10   COL    14   RATE     750.000    
 BOUNDARY    150   LAYER   1   ROW    10   COL    15   RATE     750.000    
 UBDSV4 SAVING ET SEGS          ON UNIT   1017 AT TIME STEP     10, STRESS PERIOD      6

 ET SEGS            PERIOD  6   STEP 10
 BOUNDARY      1   LAYER   1   ROW     1   COL    13   RATE    -78.6178      ET-1
 BOUNDARY      2   LAYER   1   ROW     2   COL    13   RATE    -148.849      ET-2
 BOUNDARY      3   LAYER   1   ROW     3   COL    13   RATE    -206.359      ET-3
 BOUNDARY      4   LAYER   1   ROW     4   COL    13   RATE    -252.015      ET-4
 BOUNDARY      5   LAYER   1   ROW     5   COL    13   RATE    -300.538      ET-5
 BOUNDARY      6   LAYER   1   ROW     6   COL    13   RATE    -299.739      ET-6
 BOUNDARY      7   LAYER   1   ROW     7   COL    13   RATE    -227.634      ET-7
 BOUNDARY      8   LAYER   1   ROW     8   COL    13   RATE    -179.122      ET-8
 BOUNDARY      9   LAYER   1   ROW     9   COL    13   RATE    -118.026      ET-9
 BOUNDARY     10   LAYER   1   ROW    10   COL    13   RATE    -40.6753      ET-10
 BOUNDARY     11   LAYER   1   ROW     1   COL    12   RATE    -128.262      ET-1
 BOUNDARY     12   LAYER   1   ROW     2   COL    12   RATE    -225.206      ET-2
 BOUNDARY     13   LAYER   1   ROW     3   COL    12   RATE    -285.074      ET-3
 BOUNDARY     14   LAYER   1   ROW     4   COL    12   RATE    -353.561      ET-4
 BOUNDARY     15   LAYER   1   ROW     5   COL    12   RATE    -427.754      ET-5
 BOUNDARY     16   LAYER   1   ROW     6   COL    12   RATE    -426.949      ET-6
 BOUNDARY     17   LAYER   1   ROW     7   COL    12   RATE    -319.975      ET-7
 BOUNDARY     18   LAYER   1   ROW     8   COL    12   RATE    -247.534      ET-8
 BOUNDARY     19   LAYER   1   ROW     9   COL    12   RATE    -184.385      ET-9
 BOUNDARY     20   LAYER   1   ROW    10   COL    12   RATE    -69.5549      ET-10
 UBDSV4 SAVING CONSTANT HEADS   ON UNIT   1017 AT TIME STEP     10, STRESS PERIOD      6

 CONSTANT HEADS     PERIOD  6   STEP 10
 BOUNDARY      1   LAYER   1   ROW     1   COL     1   RATE     2619.34      CHD-1
 BOUNDARY      2   LAYER   1   ROW     4   COL     1   RATE     4721.53    
 BOUNDARY      3   LAYER   1   ROW     5   COL     1   RATE     853.465      CHD_GP
 BOUNDARY      4   LAYER   1   ROW     6   COL     1   RATE     4312.32      CHD_GP
 BOUNDARY      5   LAYER   1   ROW    10   COL     1   RATE     1739.90      CHD-10
1
  HEAD             IN LAYER   1 AT END OF TIME STEP  10 IN STRESS PERIOD    6
  ---------------------------------------------------------------------------

           1       2       3       4       5       6       7       8       9      10      11      12      13      14      15
 ...........................................................................................................................
   1   120.00  117.05  115.81  115.08  114.44  113.69  112.76  111.66  110.38  108.92  107.29  105.49  104.07  102.94  102.07
   2   113.92  114.90  115.09  114.76  114.33  113.65  112.75  111.65  110.35  108.86  107.17  105.25  103.86  102.85  102.07
   3   105.36  113.18  114.63  114.31  114.22  113.63  112.74  111.63  110.31  108.77  107.00  104.92  103.56  102.73  102.07
   4   120.00  116.72  115.67  114.96  114.40  113.68  112.74  111.61  110.26  108.68  106.82  104.58  103.26  102.60  102.07
   5   120.00  117.51  116.09  115.23  114.51  113.71  112.75  111.60  110.24  108.62  106.68  104.28  103.01  102.49  102.06
   6   120.00  116.82  115.77  115.12  114.49  113.71  112.76  111.61  110.24  108.62  106.68  104.27  103.00  102.49  102.06
   7   107.00  113.51  114.82  114.78  114.39  113.70  112.77  111.64  110.29  108.70  106.82  104.57  103.25  102.59  102.07
   8   112.98  114.48  114.95  114.58  114.36  113.71  112.80  111.68  110.35  108.81  107.03  104.95  103.58  102.73  102.07
   9   116.57  116.15  115.69  115.11  114.54  113.79  112.84  111.72  110.41  108.92  107.24  105.34  103.93  102.89  102.07
  10   120.00  117.62  116.31  115.44  114.67  113.84  112.88  111.75  110.46  109.00  107.39  105.66  104.21  103.00  102.07
1
  HEAD             IN LAYER   2 AT END OF TIME STEP  10 IN STRESS PERIOD    6
  ---------------------------------------------------------------------------

           1       2       3       4       5       6       7       8       9      10      11      12      13      14      15
 ...........................................................................................................................
   1   112.54  110.26  106.46  102.98  105.49  108.34  109.83  110.06  109.46  108.37  107.04  105.67  104.53  103.72  103.32
   2   110.47  107.73  100.83   90.38  100.12  106.54  109.28  109.90  109.39  108.32  106.97  105.58  104.44  103.67  103.29
   3   108.78  105.18   91.13   45.18   90.53  104.40  108.79  109.77  109.34  108.25  106.87  105.44  104.31  103.59  103.25
   4   111.78  108.51  101.32   90.73  100.38  106.72  109.38  109.93  109.36  108.21  106.77  105.30  104.18  103.51  103.21
   5   113.27  110.97  107.15  103.67  106.03  108.72  110.05  110.15  109.42  108.20  106.71  105.20  104.09  103.45  103.18
   6   112.96  110.90  107.47  104.52  106.48  108.96  110.20  110.23  109.47  108.22  106.72  105.21  104.09  103.45  103.18
   7   110.38  108.52  103.10   96.94  102.44  107.53  109.81  110.17  109.49  108.28  106.81  105.32  104.19  103.51  103.21
   8   110.57  107.13   97.84   85.25   97.13  105.96  109.45  110.13  109.54  108.36  106.93  105.48  104.34  103.61  103.26
   9   112.41  109.66  103.77   97.40  102.77  107.77  109.99  110.31  109.63  108.46  107.06  105.65  104.50  103.71  103.31
  10   114.11  111.95  108.39  105.36  107.13  109.44  110.54  110.49  109.71  108.52  107.15  105.77  104.60  103.77  103.35

 HEAD WILL BE SAVED ON UNIT 1018 AT END OF TIME STEP   10, STRESS PERIOD    6
1
  VOLUME BUDGET FOR ENTIRE MODEL AT END OF TIME STEP   10, STRESS PERIOD   6
  ------------------------------------------------------------------------------

     CUMULATIVE VOLUME      L**3       RATES FOR THIS TIME STEP      L**3/T
     ------------------                 ------------------------

           IN:                                      IN:
           ---                                      ---
         STORAGE(SS) =       87660.5372           STORAGE(SS) =        1659.8661
         STORAGE(SY) =      468363.3820           STORAGE(SY) =       93328.7072
    WELLS NEAR RIVER =           0.0000      WELLS NEAR RIVER =           0.0000
               RIVER =      521888.8807                 RIVER =           0.0000
           GHB LAKES =       47517.8120             GHB LAKES =        4211.5384
            RECHARGE =     1094750.0000              RECHARGE =      108750.0000
             ET SEGS =           0.0000               ET SEGS =           0.0000
      CONSTANT HEADS =      156873.9552        CONSTANT HEADS =       14246.5608

            TOTAL IN =     2377054.5671              TOTAL IN =      222196.6725

          OUT:                                     OUT:
          ----                                     ----
         STORAGE(SS) =        9612.8854           STORAGE(SS) =        7714.1231
         STORAGE(SY) =     1444559.8171           STORAGE(SY) =       88962.5511
    WELLS NEAR RIVER =      320240.0000      WELLS NEAR RIVER =           0.0000
               RIVER =      345603.2265                 RIVER =      101882.4962
           GHB LAKES =      208326.3526             GHB LAKES =       19117.6739
            RECHARGE =           0.0000              RECHARGE =           0.0000
             ET SEGS =       48712.2909               ET SEGS =        4519.8282
      CONSTANT HEADS =           0.0000        CONSTANT HEADS =           0.0000

           TOTAL OUT =     2377054.5725             TOTAL OUT =      222196.6725

            IN - OUT =      -5.4016E-03              IN - OUT =       2.8376E-08

 PERCENT DISCREPANCY =          -0.00     PERCENT DISCREPANCY =           0.00






         TIME SUMMARY AT END OF TIME STEP   10 IN STRESS PERIOD    6
                    SECONDS     MINUTES      HOURS       DAYS        YEARS
                    -----------------------------------------------------------
   TIME STEP LENGTH  17280.      288.00      4.8000     0.20000     5.47570E-04
 STRESS PERIOD TIME 1.72800E+05  2880.0      48.000      2.0000     5.47570E-03
         TOTAL TIME 9.50400E+05  15840.      264.00      11.000     3.01164E-02
 
