                                  MODFLOW-2015
             U.S. GEOLOGICAL SURVEY MODULAR FINITE-DIFFERENCE MODEL
                          GROUNDWATER FLOW MODEL (GWF)
                             VERSION GWF 01/31/2015

 OPENED bcf2ss.ic
 FILE TYPE:IC8                    UNIT 1005   STATUS:OLD                 
 FORMAT:FORMATTED              ACCESS:SEQUENTIAL          
 ACTION:READ                


 OPENED bcf2ss.npf
 FILE TYPE:NPF8                   UNIT 1006   STATUS:OLD                 
 FORMAT:FORMATTED              ACCESS:SEQUENTIAL          
 ACTION:READ                


 OPENED bcf2ss.wel
 FILE TYPE:WEL8                   UNIT 1007   STATUS:OLD                 
 FORMAT:FORMATTED              ACCESS:SEQUENTIAL          
 ACTION:READ                


 OPENED bcf2ss.riv
 FILE TYPE:RIV8                   UNIT 1008   STATUS:OLD                 
 FORMAT:FORMATTED              ACCESS:SEQUENTIAL          
 ACTION:READ                


 OPENED bcf2ss.rch
 FILE TYPE:RCH8                   UNIT 1009   STATUS:OLD                 
 FORMAT:FORMATTED              ACCESS:SEQUENTIAL          
 ACTION:READ                


 OPENED bcf2ss.oc
 FILE TYPE:OC8                    UNIT 1010   STATUS:OLD                 
 FORMAT:FORMATTED              ACCESS:SEQUENTIAL          
 ACTION:READ                


 OPENED bcf2ss.dis
 FILE TYPE:DIS8                   UNIT 1011   STATUS:OLD                 
 FORMAT:FORMATTED              ACCESS:SEQUENTIAL          
 ACTION:READ                


 OPENED bcf2ss.ghb
 FILE TYPE:GHB8                   UNIT 1012   STATUS:OLD                 
 FORMAT:FORMATTED              ACCESS:SEQUENTIAL          
 ACTION:READ                


 OPENED test4tr.sto
 FILE TYPE:STO8                   UNIT 1013   STATUS:OLD                 
 FORMAT:FORMATTED              ACCESS:SEQUENTIAL          
 ACTION:READ                


 OPENED bcf2ss_struct.obs
 FILE TYPE:OBS8                   UNIT 1014   STATUS:OLD                 
 FORMAT:FORMATTED              ACCESS:SEQUENTIAL          
 ACTION:READ                


 OPENED test4tr.tsl
 FILE TYPE:TSL8                   UNIT 1015   STATUS:OLD                 
 FORMAT:FORMATTED              ACCESS:SEQUENTIAL          
 ACTION:READ                


 OPENED test4_tr_obs.chd
 FILE TYPE:CHD8                   UNIT 1016   STATUS:OLD                 
 FORMAT:FORMATTED              ACCESS:SEQUENTIAL          
 ACTION:READ                


 OPENED bcf2ss.cbc
 FILE TYPE:DATA(BINARY)           UNIT 1017   STATUS:REPLACE             
 FORMAT:UNFORMATTED            ACCESS:STREAM              
 ACTION:READWRITE           


 OPENED bcf2ss.hds
 FILE TYPE:DATA                   UNIT 1018   STATUS:REPLACE             
 FORMAT:FORMATTED              ACCESS:SEQUENTIAL          
 ACTION:READWRITE           


 OPENED ibound.out
 FILE TYPE:DATA                   UNIT 1019   STATUS:REPLACE             
 FORMAT:FORMATTED              ACCESS:SEQUENTIAL          
 ACTION:READWRITE           


 OPENED head_obs.csv
 FILE TYPE:DATA                   UNIT 1020   STATUS:REPLACE             
 FORMAT:FORMATTED              ACCESS:SEQUENTIAL          
 ACTION:READWRITE           


 OPENED riv_obs.csv
 FILE TYPE:DATA                   UNIT 1021   STATUS:REPLACE             
 FORMAT:FORMATTED              ACCESS:SEQUENTIAL          
 ACTION:READWRITE           


 OPENED ghb_obs.csv
 FILE TYPE:DATA                   UNIT 1022   STATUS:REPLACE             
 FORMAT:FORMATTED              ACCESS:SEQUENTIAL          
 ACTION:READWRITE           


 OPENED ghb_flows.csv
 FILE TYPE:DATA                   UNIT 1023   STATUS:REPLACE             
 FORMAT:FORMATTED              ACCESS:SEQUENTIAL          
 ACTION:READWRITE           


 OPENED head_hydrographs.csv
 FILE TYPE:DATA                   UNIT 1024   STATUS:REPLACE             
 FORMAT:FORMATTED              ACCESS:SEQUENTIAL          
 ACTION:READWRITE           


 OPENED riv_flows.csv
 FILE TYPE:DATA                   UNIT 1025   STATUS:REPLACE             
 FORMAT:FORMATTED              ACCESS:SEQUENTIAL          
 ACTION:READWRITE           


 OPENED intercell_flow_obs1.csv
 FILE TYPE:DATA                   UNIT 1026   STATUS:REPLACE             
 FORMAT:FORMATTED              ACCESS:SEQUENTIAL          
 ACTION:READWRITE           


 OPENED intercell_flow_obs2.csv
 FILE TYPE:DATA                   UNIT 1027   STATUS:REPLACE             
 FORMAT:FORMATTED              ACCESS:SEQUENTIAL          
 ACTION:READWRITE           


 OPENED intercell_flows.csv
 FILE TYPE:DATA                   UNIT 1028   STATUS:REPLACE             
 FORMAT:FORMATTED              ACCESS:SEQUENTIAL          
 ACTION:READWRITE           


 OPENED chd_flows.csv
 FILE TYPE:DATA                   UNIT 1029   STATUS:REPLACE             
 FORMAT:FORMATTED              ACCESS:SEQUENTIAL          
 ACTION:READWRITE           


 OPENED chd_obs.csv
 FILE TYPE:DATA                   UNIT 1030   STATUS:REPLACE             
 FORMAT:FORMATTED              ACCESS:SEQUENTIAL          
 ACTION:READWRITE           


 DIS -- STRUCTURED GRID DISCRETIZATION PACKAGE, VERSION 2 : 3/27/2014 - INPUT READ FROM UNIT 1011


 PROCESSING DISCRETIZATION OPTIONS
 END OF DISCRETIZATION OPTIONS
 MODEL LENGTH UNIT IS UNDEFINED
 PROCESSING DISCRETIZATION DIMENSIONS
    NLAY =       2
    NROW =      10
    NCOL =      15
 END OF DISCRETIZATION DIMENSIONS
 PROCESSING DISDATA

                     DELR =   500.000    

                     DELC =   500.000    

 TOP ELEVATION OF LAYER 1 =   150.000    

   MODEL LAYER BOTTOM EL. =   50.0000     FOR LAYER   1

   MODEL LAYER BOTTOM EL. =  -50.0000     FOR LAYER   2
 END PROCESSING DISDATA

 WEL   -- WELLS PACKAGE, VERSION 8, 2/22/2014 INPUT READ FROM UNIT 1007
 #option block.  Note -- no comments allowed on aux line

 PROCESSING WELLS OPTIONS
    AUXILIARY WELLS VARIABLE: VAR1            
    AUXILIARY WELLS VARIABLE: VAR2            
    AUXILIARY WELLS VARIABLE: VAR3            
    WELLS NEAR RIVER PACKAGE NAME: WELLS NEAR RIVER
    LISTS OF WELLS NEAR RIVER CELLS WILL BE PRINTED.
    WELLS NEAR RIVER FLOWS WILL BE PRINTED TO LISTING FILE.
    FLOWS WILL BE SAVED TO BUDGET FILE SPECIFIED IN OUTPUT CONTROL
 END OF WELLS NEAR RIVER OPTIONS

 PROCESSING WELLS NEAR RIVER DIMENSIONS
    MAXBOUND =       2
 END OF WELLS NEAR RIVER DIMENSIONS

 RIV   -- RIVER LEAKAGE PACKAGE, VERSION 8, 2/22/2014 INPUT READ FROM UNIT 1008
 #option block.  Note -- no comments allowed on aux line

 PROCESSING RIVER LEAKAGE OPTIONS
    RIVER PACKAGE NAME: RIVER           
    LISTS OF RIVER CELLS WILL BE PRINTED.
    RIVER FLOWS WILL BE PRINTED TO LISTING FILE.
    FLOWS WILL BE SAVED TO BUDGET FILE SPECIFIED IN OUTPUT CONTROL
    RIVER BOUNDARIES HAVE NAMES IN LAST COLUMN.
 END OF RIVER OPTIONS

 PROCESSING RIVER DIMENSIONS
    MAXBOUND =      10
 END OF RIVER DIMENSIONS

 GHB   -- HEAD DEP BOUNDS PACKAGE, VERSION 8, 2/22/2014 INPUT READ FROM UNIT 1012
 # Options block

 PROCESSING HEAD DEP BOUNDS OPTIONS
    GHB LAKES PACKAGE NAME: GHB LAKES       
    LISTS OF GHB LAKES CELLS WILL BE PRINTED.
    GHB LAKES FLOWS WILL BE PRINTED TO LISTING FILE.
    GHB LAKES BOUNDARIES HAVE NAMES IN LAST COLUMN.
 END OF GHB LAKES OPTIONS
 # Dimensions block

 PROCESSING GHB LAKES DIMENSIONS
    MAXBOUND =       3
 END OF GHB LAKES DIMENSIONS

 RCH   -- RECHARGE PACKAGE, VERSION 8, 2/22/2014 INPUT READ FROM UNIT 1009

 PROCESSING RECHARGE OPTIONS
    AUXILIARY RECHARGE VARIABLE: VAR1            
    AUXILIARY RECHARGE VARIABLE: VAR2            
    RECHARGE WILL BE APPLIED TO HIGHEST ACTIVE CELL.
    LISTS OF RECHARGE CELLS WILL BE PRINTED.
    RECHARGE FLOWS WILL BE PRINTED TO LISTING FILE.
    FLOWS WILL BE SAVED TO BUDGET FILE SPECIFIED IN OUTPUT CONTROL
    RECHARGE PACKAGE NAME: RECHARGE        
 END OF RECHARGE OPTIONS
 #dimension block is required

 PROCESSING RECHARGE DIMENSIONS
    MAXBOUND =     150
 END OF RECHARGE DIMENSIONS

 CHD   -- CONSTANT HEAD PACKAGE, VERSION 8, 2/22/2014 INPUT READ FROM UNIT 1016

 PROCESSING CONSTANT HEAD OPTIONS
    CONSTANT HEADS PACKAGE NAME: CONSTANT HEADS  
    CONSTANT HEADS BOUNDARIES HAVE NAMES IN LAST COLUMN.
    LISTS OF CONSTANT HEADS CELLS WILL BE PRINTED.
    CONSTANT HEADS FLOWS WILL BE PRINTED TO LISTING FILE.
    FLOWS WILL BE SAVED TO BUDGET FILE SPECIFIED IN OUTPUT CONTROL
 END OF CONSTANT HEADS OPTIONS

 PROCESSING CONSTANT HEADS DIMENSIONS
    MAXBOUND =      10
 END OF CONSTANT HEADS DIMENSIONS

 IC -- INITIAL CONDITIONS PACKAGE, VERSION 8, 3/28/2015 INPUT READ FROM UNIT 1005
 #Valley aquifer with 2 sand layers separated by silt.  Stress period 1 is natur
 # conditions.  Stress period 2 adds wells.
 PROCESSING IC OPTIONS
 END OF IC OPTIONS
 PROCESSING ICDATA

             INITIAL HEAD =  100.0000     FOR LAYER   1

             INITIAL HEAD =  100.0000     FOR LAYER   2
 END PROCESSING ICDATA

 NPF -- NODE PROPERTY FLOW PACKAGE, VERSION 1, 3/30/2015 INPUT READ FROM UNIT 1006


 PROCESSING NPF OPTIONS
    CELL-BY-CELL FLOW INFORMATION WILL BE SAVED TO BINARY FILE WHENEVER ICBCFL IS NOT ZERO.
 #  VFC  (turn on vertical flow correction).  Default is off?
    VERTICAL CONDUCTANCE IS CONSTANT.
 #  CVCORRECTION (default is off)
    REWETTING IS ACTIVE.
    IWETIT HAS BEEN SET TO:     1
    WETTING FACTOR HAS BEEN SET TO:    1.000000    
    IHDWET HAS BEEN SET TO:     0
    THE VALUE FOR HDRY HAS BEEN SET TO:     777.770    
 END OF NPF OPTIONS
 #
 PROCESSING NPFDATA

                ICELLTYPE =              1 FOR LAYER   1

                ICELLTYPE =              0 FOR LAYER   2

                 ICELLAVG =         0



                             WETDRY FOR LAYER   1
 READING ON UNIT 1006 WITH FORMAT: (FREE)              

           1          2          3          4          5          6          7          8          9         10         11
          12         13         14         15
 .........................................................................................................................
   1    2.00       2.00       2.00       2.00       2.00       2.00       2.00       2.00      -2.00      -2.00      -2.00    
       -2.00      -2.00      -2.00      -2.00    
   2    2.00       2.00       2.00       2.00       2.00       2.00       2.00       2.00      -2.00      -2.00      -2.00    
       -2.00      -2.00      -2.00      -2.00    
   3    2.00       2.00       2.00      -2.00       2.00       2.00       2.00       2.00      -2.00      -2.00      -2.00    
       -2.00      -2.00      -2.00      -2.00    
   4    2.00       2.00       2.00       2.00       2.00       2.00       2.00       2.00      -2.00      -2.00      -2.00    
       -2.00      -2.00      -2.00      -2.00    
   5    2.00       2.00       2.00       2.00       2.00       2.00       2.00       2.00      -2.00      -2.00      -2.00    
       -2.00      -2.00      -2.00      -2.00    
   6    2.00       2.00       2.00       2.00       2.00       2.00       2.00       2.00      -2.00      -2.00      -2.00    
       -2.00      -2.00      -2.00      -2.00    
   7    2.00       2.00       2.00       2.00       2.00       2.00       2.00       2.00      -2.00      -2.00      -2.00    
       -2.00      -2.00      -2.00      -2.00    
   8    2.00       2.00       2.00      -2.00       2.00       2.00       2.00       2.00      -2.00      -2.00      -2.00    
       -2.00      -2.00      -2.00      -2.00    
   9    2.00       2.00       2.00       2.00       2.00       2.00       2.00       2.00      -2.00      -2.00      -2.00    
       -2.00      -2.00      -2.00      -2.00    
  10    2.00       2.00       2.00       2.00       2.00       2.00       2.00       2.00      -2.00      -2.00      -2.00    
       -2.00      -2.00      -2.00      -2.00    

                   WETDRY =   0.00000     FOR LAYER   2

                       HK =   4.00000     FOR LAYER   1

                       HK =  0.500000     FOR LAYER   2

                       VK =  1.000000E-02
 END PROCESSING NPFDATA

 STO -- STORAGE PACKAGE, VERSION 1, 5/19/2014 INPUT READ FROM UNIT 1013


 PROCESSING STORAGE OPTIONS
    CELL-BY-CELL FLOW INFORMATION WILL BE SAVED TO BINARY FILE WHENEVER ICBCFL IS NOT ZERO.
 #STORAGECOEFFICIENT uncomment if SS is entered as storage coefficient
 END OF STORAGE OPTIONS

 OUTPUT CONTROL IS SPECIFIED ONLY AT TIME STEPS FOR WHICH OUTPUT IS DESIRED
 BINARY CELL-BY-CELL BUDGET INFORMATION WILL BE WRITTEN TO FILE:
 bcf2ss.cbc
 OPENED ON UNIT NUMBER:   1017
 HEAD             WILL BE SAVED WITH FORMAT: (15f7.2)                                                    
 SAVED HEAD             WILL BE LABELED
 IBOUND           WILL BE SAVED WITH FORMAT: (15i2)                                                      
 SAVED IBOUND           WILL BE LABELED
 HEAD PRINT FORMAT CODE IS   4
 DRAWDOWN PRINT FORMAT CODE IS   0
 IBOUND PRINT FORMAT CODE IS   0
 HEAD WILL BE SAVED ON UNIT 1018
 IBOUND WILL BE SAVED ON UNIT 1019

The Observation Process is active

Processing observation options:

Binary output precision set to: SINGLE
Text output number of digits of precision set to: 10
"Structured" option found. Cell locations for observations will be
read as: Layer Row Column.


Observations:
Name          Type                       Time         Location data
------------  -------------------------  -----------  --------------------------
H1_DAY1       Single HEAD                1.00000      "2  3  6    # head obs at layer 2 row 3 col 6"
H1_DAY2       Single HEAD                 2.0000      "2  3  6    # head obs at layer 2 row 3 col 6"
H1_DAY3.0     Single HEAD                 3.0000      "2  3  6    # head obs at layer 2 row 3 col 6"
H1_DAY4.1     Single HEAD                 4.1000      "2  3  6    # head obs at layer 2 row 3 col 6"
H1_DAY5.6     Single HEAD                 5.6000      "2  3  6    # head obs at layer 2 row 3 col 6"
H1_DAY10.8    Single HEAD                 10.800      "2  3  6    # head obs at layer 2 row 3 col 6"
RV2-4-15D1    Single RIV                 1.00000      "2  4 15  # river flow at layer 2 row 4 col 15"
RV2-4-15D2.0  Single RIV                  2.0000      "2  4 15  # river flow at layer 2 row 4 col 15"
RV2-4-15D3.0  Single RIV                  3.0000      "2  4 15  # river flow at layer 2 row 4 col 15"
RV2-4-15D4.1  Single RIV                  4.1000      "2  4 15  # river flow at layer 2 row 4 col 15"
RV2-4-15D5.6  Single RIV                  5.6000      "2  4 15  # river flow at layer 2 row 4 col 15"
RV2-4-15D10.  Single RIV                  10.800      "2  4 15  # river flow at layer 2 row 4 col 15"
RIV2-10.8     Single RIV                  10.800      "riv2     # river flow at river boundary "riv2""
RIV3-10.8     Single RIV                  10.800      "riv3     # river flow at river boundary "riv3""
RIVX-10.8     Single RIV                  10.800      "rivX     # sum of river flows at boundaries named "rivX""
RV2-7-15D1    Single RIV                  10.800      "2  7 15  # rivX, row 7"
RV2-8-15D1    Single RIV                  10.800      "2  8 15  # rivX, row 8"
RV2-9-15D1    Single RIV                  10.800      "2  9 15  # rivX, row 8"
GH1_7_1_1.0   Single GHB                 1.00000      "1  7  1"
GH2UPPER1.0   Single GHB                 1.00000      "ghb2_upper"
GH2UPPER1.0   Single GHB                 1.00000      "ghb2_lower"
GH1_7_1_2.0   Single GHB                  2.0000      "1  7  1"
GH2UPPER2.0   Single GHB                  2.0000      "ghb2_upper"
GH2UPPER2.0   Single GHB                  2.0000      "ghb2_lower"
GH1_7_1_3.0   Single GHB                  3.0000      "1  7  1"
GH2UPPER3.0   Single GHB                  3.0000      "ghb2_upper"
GH2UPPER3.0   Single GHB                  3.0000      "ghb2_lower"
GH1_7_1_4.1   Single GHB                  4.1000      "1  7  1"
GH2UPPER4.1   Single GHB                  4.1000      "ghb2_upper"
GH2UPPER4.1   Single GHB                  4.1000      "ghb2_lower"
GH1_7_1_5.6   Single GHB                  5.6000      "1  7  1"
GH2UPPER5.6   Single GHB                  5.6000      "ghb2_upper"
GH2UPPER5.6   Single GHB                  5.6000      "ghb2_lower"
GH1_7_1_10.8  Single GHB                  10.800      "1  7  1"
GH2UPPER10.8  Single GHB                  10.800      "ghb2_upper"
GH2UPPER10.8  Single GHB                  10.800      "ghb2_lower"
ICF1_1.0      Single INTERCELL-FLOW      1.00000      "1 4 7  1 4 8  # intercell flow between (1,4,7) and (1,4,8)"
ICF1_2.0      Single INTERCELL-FLOW       2.0000      "1 4 7  1 4 8  # intercell flow between (1,4,7) and (1,4,8)"
ICF1_3.0      Single INTERCELL-FLOW       3.0000      "1 4 7  1 4 8  # intercell flow between (1,4,7) and (1,4,8)"
ICF1_4.1      Single INTERCELL-FLOW       4.1000      "1 4 7  1 4 8  # intercell flow between (1,4,7) and (1,4,8)"
ICF1_5.6      Single INTERCELL-FLOW       5.6000      "1 4 7  1 4 8  # intercell flow between (1,4,7) and (1,4,8)"
ICF1_10.8     Single INTERCELL-FLOW       10.800      "1 4 7  1 4 8  # intercell flow between (1,4,7) and (1,4,8)"
ICF2_1.0      Single INTERCELL-FLOW      1.00000      "1 4 7  1 5 7  # intercell flow between (1,4,7) and (1,5,7)"
ICF2_2.0      Single INTERCELL-FLOW       2.0000      "1 4 7  1 5 7  # intercell flow between (1,4,7) and (1,5,7)"
ICF2_3.0      Single INTERCELL-FLOW       3.0000      "1 4 7  1 5 7  # intercell flow between (1,4,7) and (1,5,7)"
ICF2_4.1      Single INTERCELL-FLOW       4.1000      "1 4 7  1 5 7  # intercell flow between (1,4,7) and (1,5,7)"
ICF2_5.6      Single INTERCELL-FLOW       5.6000      "1 4 7  1 5 7  # intercell flow between (1,4,7) and (1,5,7)"
ICF2_10.8     Single INTERCELL-FLOW       10.800      "1 4 7  1 5 7  # intercell flow between (1,4,7) and (1,5,7)"
CHDF1.0       Single CHD-FLOW            1.00000      "chd_gp  # constant-head flow at chd_gp"
CHDF2.0       Single CHD-FLOW             2.0000      "chd_gp  # constant-head flow at chd_gp"
CHDF2.5       Single CHD-FLOW             2.5000      "chd_gp  # constant-head flow at chd_gp"
CHDF3.0       Single CHD-FLOW             3.0000      "chd_gp  # constant-head flow at chd_gp"
CHDF8.0       Single CHD-FLOW             8.0000      "chd_gp  # constant-head flow at chd_gp"
CHDF10.0      Single CHD-FLOW            10.0000      "chd_gp  # constant-head flow at chd_gp"
CHDF11.0      Single CHD-FLOW             11.000      "chd_gp  # constant-head flow at chd_gp"
RIV2-3-15     Continuous RIV             All times    "2 3 15      # sum of flows for all riv cells at lay 2 row 3 col 15"
RIV2-4-15     Continuous RIV             All times    "2 4 15      # sum of flows for all riv cells at lay 2 row 4 col 15"
RIV2-5-15     Continuous RIV             All times    "2 5 15      # sum of flows for all riv cells at lay 2 row 5 col 15"
GHB1-3-1      Continuous GHB             All times    "1 3 1"
GHB1-7-1      Continuous GHB             All times    "1 7 1"
H1-3-4        Continuous HEAD            All times    "1  3  4      # heads at lay 1 row 3 col 4"
H2-6-4        Continuous HEAD            All times    "2  6  4      # heads at lay 2 row 6 col 4"
ICF1          Continuous INTERCELL-FLOW  All times    "2 4 7  2 4 8  # intercell flow between (2,4,7) and (2,4,8)"
ICF2          Continuous INTERCELL-FLOW  All times    "2 4 7  2 5 7  # intercell flow between (2,4,7) and (2,5,7)"
CHDF_CHD_GP   Continuous CHD-FLOW        All times    "chd_gp  # constant-head flow"
 #

 REUSING STORAGE VALUES FROM LAST STRESS PERIOD

 REUSING WELS FROM LAST STRESS PERIOD
 #    layer       row       col    stage      cond       rbot  BoundName

 RIV NO.  LAYER   ROW    COL       STAGE         CONDUCTANCE  BOTTOM EL.      BOUNDARY NAME         
 ---------------------------------------------------------------------------------------------------
      1      2      1     15       0.000          0.1000E+05      -5.000                      
      2      2      2     15       0.000          0.1000E+05      -5.000      RIV2            
      3      2      3     15       0.000          0.1000E+05      -5.000      RIV3            
      4      2      4     15       0.000          0.1000E+05      -5.000                      
      5      2      5     15       0.000          0.1000E+05      -5.000                      
      6      2      6     15       0.000          0.1000E+05      -5.000                      
      7      2      7     15       0.000          0.1000E+05      -5.000      RIVX            
      8      2      8     15       0.000          0.1000E+05      -5.000      RIVX            
      9      2      9     15       0.000          0.1000E+05      -5.000      RIVX            
     10      2     10     15       0.000          0.1000E+05      -5.000                      
 # Stress-period block(s)

 GHB NO.  LAYER   ROW    COL       STAGE         CONDUCTANCE  BOUNDARY NAME         
 -----------------------------------------------------------------------------------
      1      1      3      1      100.00          0.1500E+05                  
      2      1      7      1       110.0          0.1400E+05  GHB2_UPPER      
      3      1      7      1       85.00           5000.      GHB2_LOWER      

      LAYER OR NODE INDEX =              1

                 RECHARGE =  2.000000E-03

 VAR1                     =  100.0000    
 #L   R   C  shead  ehead  name

 CHD NO.  LAYER   ROW    COL       SHEAD           EHEAD      BOUNDARY NAME         
 -----------------------------------------------------------------------------------
      1      1      1      1       120.0           120.0      CHD-1           
      2      1      4      1       120.0           120.0                      
      3      1      5      1       120.0           120.0      CHD_GP          
      4      1      6      1       120.0           120.0      CHD_GP          
      5      1     10      1       120.0           120.0      CHD-10          

 CELL CONVERSIONS FOR ITER.=  1  STEP=  1  PERIOD=   1   (NODE or LRC)
     DRY             (1,1,2) DRY             (1,1,3) DRY             (1,1,4) DRY             (1,1,5) DRY             (1,1,6)
     DRY             (1,1,7) DRY             (1,1,8) DRY             (1,1,9) DRY            (1,1,10) DRY            (1,1,11)
     DRY            (1,1,12) DRY            (1,1,13) DRY            (1,1,14) DRY            (1,1,15) DRY             (1,2,1)
     DRY             (1,2,2) DRY             (1,2,3) DRY             (1,2,4) DRY             (1,2,5) DRY             (1,2,6)
     DRY             (1,2,7) DRY             (1,2,8) DRY             (1,2,9) DRY            (1,2,10) DRY            (1,2,11)
     DRY            (1,2,12) DRY            (1,2,13) DRY            (1,2,14) DRY            (1,2,15) DRY             (1,3,1)
     DRY             (1,3,2) DRY             (1,3,3) DRY             (1,3,4) DRY             (1,3,5) DRY             (1,3,6)
     DRY             (1,3,7) DRY             (1,3,8) DRY             (1,3,9) DRY            (1,3,10) DRY            (1,3,11)
     DRY            (1,3,12) DRY            (1,3,13) DRY            (1,3,14) DRY            (1,3,15) DRY             (1,4,2)
     DRY             (1,4,3) DRY             (1,4,4) DRY             (1,4,5) DRY             (1,4,6) DRY             (1,4,7)
     DRY             (1,4,8) DRY             (1,4,9) DRY            (1,4,10) DRY            (1,4,11) DRY            (1,4,12)
     DRY            (1,4,13) DRY            (1,4,14) DRY            (1,4,15) DRY             (1,5,2) DRY             (1,5,3)
     DRY             (1,5,4) DRY             (1,5,5) DRY             (1,5,6) DRY             (1,5,7) DRY             (1,5,8)
     DRY             (1,5,9) DRY            (1,5,10) DRY            (1,5,11) DRY            (1,5,12) DRY            (1,5,13)
     DRY            (1,5,14) DRY            (1,5,15) DRY             (1,6,2) DRY             (1,6,3) DRY             (1,6,4)
     DRY             (1,6,5) DRY             (1,6,6) DRY             (1,6,7) DRY             (1,6,8) DRY             (1,6,9)
     DRY            (1,6,10) DRY            (1,6,11) DRY            (1,6,12) DRY            (1,6,13) DRY            (1,6,14)
     DRY            (1,6,15) DRY             (1,7,1) DRY             (1,7,2) DRY             (1,7,3) DRY             (1,7,4)
     DRY             (1,7,5) DRY             (1,7,6) DRY             (1,7,7) DRY             (1,7,8) DRY             (1,7,9)
     DRY            (1,7,10) DRY            (1,7,11) DRY            (1,7,12) DRY            (1,7,13) DRY            (1,7,14)
     DRY            (1,7,15) DRY             (1,8,1) DRY             (1,8,2) DRY             (1,8,3) DRY             (1,8,4)
     DRY             (1,8,5) DRY             (1,8,6) DRY             (1,8,7) DRY             (1,8,8) DRY             (1,8,9)
     DRY            (1,8,10) DRY            (1,8,11) DRY            (1,8,12) DRY            (1,8,13) DRY            (1,8,14)
     DRY            (1,8,15) DRY             (1,9,1) DRY             (1,9,2) DRY             (1,9,3) DRY             (1,9,4)
     DRY             (1,9,5) DRY             (1,9,6) DRY             (1,9,7) DRY             (1,9,8) DRY             (1,9,9)
     DRY            (1,9,10) DRY            (1,9,11) DRY            (1,9,12) DRY            (1,9,13) DRY            (1,9,14)
     DRY            (1,9,15) DRY            (1,10,2) DRY            (1,10,3) DRY            (1,10,4) DRY            (1,10,5)
     DRY            (1,10,6) DRY            (1,10,7) DRY            (1,10,8) DRY            (1,10,9) DRY           (1,10,10)
     DRY           (1,10,11) DRY           (1,10,12) DRY           (1,10,13) DRY           (1,10,14) DRY           (1,10,15)

 CELL CONVERSIONS FOR ITER.=  2  STEP=  1  PERIOD=   1   (NODE or LRC)
     WET             (1,1,2) WET             (1,1,3) WET             (1,1,4) WET             (1,1,5) WET             (1,1,6)
     WET             (1,1,7) WET             (1,1,8) WET             (1,1,9) WET            (1,1,10) WET            (1,1,11)
     WET            (1,1,12) WET            (1,1,13) WET            (1,1,14) WET             (1,2,1) WET             (1,2,2)
     WET             (1,2,3) WET             (1,2,4) WET             (1,2,5) WET             (1,2,6) WET             (1,2,7)
     WET             (1,2,8) WET             (1,2,9) WET            (1,2,10) WET            (1,2,11) WET            (1,2,12)
     WET            (1,2,13) WET            (1,2,14) WET             (1,3,1) WET             (1,3,2) WET             (1,3,3)
     WET             (1,3,4) WET             (1,3,5) WET             (1,3,6) WET             (1,3,7) WET             (1,3,8)
     WET             (1,3,9) WET            (1,3,10) WET            (1,3,11) WET            (1,3,12) WET            (1,3,13)
     WET            (1,3,14) WET             (1,4,2) WET             (1,4,3) WET             (1,4,4) WET             (1,4,5)
     WET             (1,4,6) WET             (1,4,7) WET             (1,4,8) WET             (1,4,9) WET            (1,4,10)
     WET            (1,4,11) WET            (1,4,12) WET            (1,4,13) WET            (1,4,14) WET             (1,5,2)
     WET             (1,5,3) WET             (1,5,4) WET             (1,5,5) WET             (1,5,6) WET             (1,5,7)
     WET             (1,5,8) WET             (1,5,9) WET            (1,5,10) WET            (1,5,11) WET            (1,5,12)
     WET            (1,5,13) WET            (1,5,14) WET             (1,6,2) WET             (1,6,3) WET             (1,6,4)
     WET             (1,6,5) WET             (1,6,6) WET             (1,6,7) WET             (1,6,8) WET             (1,6,9)
     WET            (1,6,10) WET            (1,6,11) WET            (1,6,12) WET            (1,6,13) WET            (1,6,14)
     WET             (1,7,1) WET             (1,7,2) WET             (1,7,3) WET             (1,7,4) WET             (1,7,5)
     WET             (1,7,6) WET             (1,7,7) WET             (1,7,8) WET             (1,7,9) WET            (1,7,10)
     WET            (1,7,11) WET            (1,7,12) WET            (1,7,13) WET            (1,7,14) WET             (1,8,1)
     WET             (1,8,2) WET             (1,8,3) WET             (1,8,4) WET             (1,8,5) WET             (1,8,6)
     WET             (1,8,7) WET             (1,8,8) WET             (1,8,9) WET            (1,8,10) WET            (1,8,11)
     WET            (1,8,12) WET            (1,8,13) WET            (1,8,14) WET             (1,9,1) WET             (1,9,2)
     WET             (1,9,3) WET             (1,9,4) WET             (1,9,5) WET             (1,9,6) WET             (1,9,7)
     WET             (1,9,8) WET             (1,9,9) WET            (1,9,10) WET            (1,9,11) WET            (1,9,12)
     WET            (1,9,13) WET            (1,9,14) WET            (1,10,2) WET            (1,10,3) WET            (1,10,4)
     WET            (1,10,5) WET            (1,10,6) WET            (1,10,7) WET            (1,10,8) WET            (1,10,9)
     WET           (1,10,10) WET           (1,10,11) WET           (1,10,12) WET           (1,10,13) WET           (1,10,14)

 OUTPUT CONTROL FOR STRESS PERIOD    1   TIME STEP    1
    PRINT BUDGET
    PRINT HEAD
    PRINT HEAD FOR ALL LAYERS
    SAVE BUDGET
    SAVE HEAD
    SAVE HEAD FOR ALL LAYERS
 UBDSV1 SAVING      STORAGE(SS) ON UNIT   1017 AT TIME STEP      1, STRESS PERIOD      1
 UBDSV1 SAVING      STORAGE(SY) ON UNIT   1017 AT TIME STEP      1, STRESS PERIOD      1
 UBDSV1 SAVING FLOW RIGHT FACE  ON UNIT   1017 AT TIME STEP      1, STRESS PERIOD      1
 UBDSV1 SAVING FLOW FRONT FACE  ON UNIT   1017 AT TIME STEP      1, STRESS PERIOD      1
 UBDSV1 SAVING FLOW LOWER FACE  ON UNIT   1017 AT TIME STEP      1, STRESS PERIOD      1
 UBDSV4 SAVING WELLS NEAR RIVER ON UNIT   1017 AT TIME STEP      1, STRESS PERIOD      1
 UBDSV4 SAVING RIVER            ON UNIT   1017 AT TIME STEP      1, STRESS PERIOD      1

 RIVER              PERIOD  1   STEP  1
 BOUNDARY      1   LAYER   2   ROW     1   COL    15   RATE    -3876.65    
 BOUNDARY      2   LAYER   2   ROW     2   COL    15   RATE    -3876.77      RIV2
 BOUNDARY      3   LAYER   2   ROW     3   COL    15   RATE    -3877.00      RIV3
 BOUNDARY      4   LAYER   2   ROW     4   COL    15   RATE    -3877.33    
 BOUNDARY      5   LAYER   2   ROW     5   COL    15   RATE    -3877.72    
 BOUNDARY      6   LAYER   2   ROW     6   COL    15   RATE    -3878.14    
 BOUNDARY      7   LAYER   2   ROW     7   COL    15   RATE    -3878.55      RIVX
 BOUNDARY      8   LAYER   2   ROW     8   COL    15   RATE    -3878.91      RIVX
 BOUNDARY      9   LAYER   2   ROW     9   COL    15   RATE    -3879.17      RIVX
 BOUNDARY     10   LAYER   2   ROW    10   COL    15   RATE    -3879.31    

 GHB LAKES          PERIOD  1   STEP  1
 BOUNDARY      1   LAYER   1   ROW     3   COL     1   RATE    -14841.2    
 BOUNDARY      2   LAYER   1   ROW     7   COL     1   RATE     81667.3      GHB2_UPPER
 BOUNDARY      3   LAYER   1   ROW     7   COL     1   RATE    -95833.1      GHB2_LOWER
 UBDSV4 SAVING RECHARGE         ON UNIT   1017 AT TIME STEP      1, STRESS PERIOD      1

 RECHARGE           PERIOD  1   STEP  1
 BOUNDARY      2   LAYER   1   ROW     1   COL     2   RATE     500.000    
 BOUNDARY      3   LAYER   1   ROW     1   COL     3   RATE     500.000    
 BOUNDARY      4   LAYER   1   ROW     1   COL     4   RATE     500.000    
 BOUNDARY      5   LAYER   1   ROW     1   COL     5   RATE     500.000    
 BOUNDARY      6   LAYER   1   ROW     1   COL     6   RATE     500.000    
 BOUNDARY      7   LAYER   1   ROW     1   COL     7   RATE     500.000    
 BOUNDARY      8   LAYER   1   ROW     1   COL     8   RATE     500.000    
 BOUNDARY      9   LAYER   1   ROW     1   COL     9   RATE     500.000    
 BOUNDARY     10   LAYER   1   ROW     1   COL    10   RATE     500.000    
 BOUNDARY     11   LAYER   1   ROW     1   COL    11   RATE     500.000    
 BOUNDARY     12   LAYER   1   ROW     1   COL    12   RATE     500.000    
 BOUNDARY     13   LAYER   1   ROW     1   COL    13   RATE     500.000    
 BOUNDARY     14   LAYER   1   ROW     1   COL    14   RATE     500.000    
 BOUNDARY     15   LAYER   2   ROW     1   COL    15   RATE     500.000    
 BOUNDARY     16   LAYER   1   ROW     2   COL     1   RATE     500.000    
 BOUNDARY     17   LAYER   1   ROW     2   COL     2   RATE     500.000    
 BOUNDARY     18   LAYER   1   ROW     2   COL     3   RATE     500.000    
 BOUNDARY     19   LAYER   1   ROW     2   COL     4   RATE     500.000    
 BOUNDARY     20   LAYER   1   ROW     2   COL     5   RATE     500.000    
 BOUNDARY     21   LAYER   1   ROW     2   COL     6   RATE     500.000    
 BOUNDARY     22   LAYER   1   ROW     2   COL     7   RATE     500.000    
 BOUNDARY     23   LAYER   1   ROW     2   COL     8   RATE     500.000    
 BOUNDARY     24   LAYER   1   ROW     2   COL     9   RATE     500.000    
 BOUNDARY     25   LAYER   1   ROW     2   COL    10   RATE     500.000    
 BOUNDARY     26   LAYER   1   ROW     2   COL    11   RATE     500.000    
 BOUNDARY     27   LAYER   1   ROW     2   COL    12   RATE     500.000    
 BOUNDARY     28   LAYER   1   ROW     2   COL    13   RATE     500.000    
 BOUNDARY     29   LAYER   1   ROW     2   COL    14   RATE     500.000    
 BOUNDARY     30   LAYER   2   ROW     2   COL    15   RATE     500.000    
 BOUNDARY     31   LAYER   1   ROW     3   COL     1   RATE     500.000    
 BOUNDARY     32   LAYER   1   ROW     3   COL     2   RATE     500.000    
 BOUNDARY     33   LAYER   1   ROW     3   COL     3   RATE     500.000    
 BOUNDARY     34   LAYER   1   ROW     3   COL     4   RATE     500.000    
 BOUNDARY     35   LAYER   1   ROW     3   COL     5   RATE     500.000    
 BOUNDARY     36   LAYER   1   ROW     3   COL     6   RATE     500.000    
 BOUNDARY     37   LAYER   1   ROW     3   COL     7   RATE     500.000    
 BOUNDARY     38   LAYER   1   ROW     3   COL     8   RATE     500.000    
 BOUNDARY     39   LAYER   1   ROW     3   COL     9   RATE     500.000    
 BOUNDARY     40   LAYER   1   ROW     3   COL    10   RATE     500.000    
 BOUNDARY     41   LAYER   1   ROW     3   COL    11   RATE     500.000    
 BOUNDARY     42   LAYER   1   ROW     3   COL    12   RATE     500.000    
 BOUNDARY     43   LAYER   1   ROW     3   COL    13   RATE     500.000    
 BOUNDARY     44   LAYER   1   ROW     3   COL    14   RATE     500.000    
 BOUNDARY     45   LAYER   2   ROW     3   COL    15   RATE     500.000    
 BOUNDARY     47   LAYER   1   ROW     4   COL     2   RATE     500.000    
 BOUNDARY     48   LAYER   1   ROW     4   COL     3   RATE     500.000    
 BOUNDARY     49   LAYER   1   ROW     4   COL     4   RATE     500.000    
 BOUNDARY     50   LAYER   1   ROW     4   COL     5   RATE     500.000    
 BOUNDARY     51   LAYER   1   ROW     4   COL     6   RATE     500.000    
 BOUNDARY     52   LAYER   1   ROW     4   COL     7   RATE     500.000    
 BOUNDARY     53   LAYER   1   ROW     4   COL     8   RATE     500.000    
 BOUNDARY     54   LAYER   1   ROW     4   COL     9   RATE     500.000    
 BOUNDARY     55   LAYER   1   ROW     4   COL    10   RATE     500.000    
 BOUNDARY     56   LAYER   1   ROW     4   COL    11   RATE     500.000    
 BOUNDARY     57   LAYER   1   ROW     4   COL    12   RATE     500.000    
 BOUNDARY     58   LAYER   1   ROW     4   COL    13   RATE     500.000    
 BOUNDARY     59   LAYER   1   ROW     4   COL    14   RATE     500.000    
 BOUNDARY     60   LAYER   2   ROW     4   COL    15   RATE     500.000    
 BOUNDARY     62   LAYER   1   ROW     5   COL     2   RATE     500.000    
 BOUNDARY     63   LAYER   1   ROW     5   COL     3   RATE     500.000    
 BOUNDARY     64   LAYER   1   ROW     5   COL     4   RATE     500.000    
 BOUNDARY     65   LAYER   1   ROW     5   COL     5   RATE     500.000    
 BOUNDARY     66   LAYER   1   ROW     5   COL     6   RATE     500.000    
 BOUNDARY     67   LAYER   1   ROW     5   COL     7   RATE     500.000    
 BOUNDARY     68   LAYER   1   ROW     5   COL     8   RATE     500.000    
 BOUNDARY     69   LAYER   1   ROW     5   COL     9   RATE     500.000    
 BOUNDARY     70   LAYER   1   ROW     5   COL    10   RATE     500.000    
 BOUNDARY     71   LAYER   1   ROW     5   COL    11   RATE     500.000    
 BOUNDARY     72   LAYER   1   ROW     5   COL    12   RATE     500.000    
 BOUNDARY     73   LAYER   1   ROW     5   COL    13   RATE     500.000    
 BOUNDARY     74   LAYER   1   ROW     5   COL    14   RATE     500.000    
 BOUNDARY     75   LAYER   2   ROW     5   COL    15   RATE     500.000    
 BOUNDARY     77   LAYER   1   ROW     6   COL     2   RATE     500.000    
 BOUNDARY     78   LAYER   1   ROW     6   COL     3   RATE     500.000    
 BOUNDARY     79   LAYER   1   ROW     6   COL     4   RATE     500.000    
 BOUNDARY     80   LAYER   1   ROW     6   COL     5   RATE     500.000    
 BOUNDARY     81   LAYER   1   ROW     6   COL     6   RATE     500.000    
 BOUNDARY     82   LAYER   1   ROW     6   COL     7   RATE     500.000    
 BOUNDARY     83   LAYER   1   ROW     6   COL     8   RATE     500.000    
 BOUNDARY     84   LAYER   1   ROW     6   COL     9   RATE     500.000    
 BOUNDARY     85   LAYER   1   ROW     6   COL    10   RATE     500.000    
 BOUNDARY     86   LAYER   1   ROW     6   COL    11   RATE     500.000    
 BOUNDARY     87   LAYER   1   ROW     6   COL    12   RATE     500.000    
 BOUNDARY     88   LAYER   1   ROW     6   COL    13   RATE     500.000    
 BOUNDARY     89   LAYER   1   ROW     6   COL    14   RATE     500.000    
 BOUNDARY     90   LAYER   2   ROW     6   COL    15   RATE     500.000    
 BOUNDARY     91   LAYER   1   ROW     7   COL     1   RATE     500.000    
 BOUNDARY     92   LAYER   1   ROW     7   COL     2   RATE     500.000    
 BOUNDARY     93   LAYER   1   ROW     7   COL     3   RATE     500.000    
 BOUNDARY     94   LAYER   1   ROW     7   COL     4   RATE     500.000    
 BOUNDARY     95   LAYER   1   ROW     7   COL     5   RATE     500.000    
 BOUNDARY     96   LAYER   1   ROW     7   COL     6   RATE     500.000    
 BOUNDARY     97   LAYER   1   ROW     7   COL     7   RATE     500.000    
 BOUNDARY     98   LAYER   1   ROW     7   COL     8   RATE     500.000    
 BOUNDARY     99   LAYER   1   ROW     7   COL     9   RATE     500.000    
 BOUNDARY    100   LAYER   1   ROW     7   COL    10   RATE     500.000    
 BOUNDARY    101   LAYER   1   ROW     7   COL    11   RATE     500.000    
 BOUNDARY    102   LAYER   1   ROW     7   COL    12   RATE     500.000    
 BOUNDARY    103   LAYER   1   ROW     7   COL    13   RATE     500.000    
 BOUNDARY    104   LAYER   1   ROW     7   COL    14   RATE     500.000    
 BOUNDARY    105   LAYER   2   ROW     7   COL    15   RATE     500.000    
 BOUNDARY    106   LAYER   1   ROW     8   COL     1   RATE     500.000    
 BOUNDARY    107   LAYER   1   ROW     8   COL     2   RATE     500.000    
 BOUNDARY    108   LAYER   1   ROW     8   COL     3   RATE     500.000    
 BOUNDARY    109   LAYER   1   ROW     8   COL     4   RATE     500.000    
 BOUNDARY    110   LAYER   1   ROW     8   COL     5   RATE     500.000    
 BOUNDARY    111   LAYER   1   ROW     8   COL     6   RATE     500.000    
 BOUNDARY    112   LAYER   1   ROW     8   COL     7   RATE     500.000    
 BOUNDARY    113   LAYER   1   ROW     8   COL     8   RATE     500.000    
 BOUNDARY    114   LAYER   1   ROW     8   COL     9   RATE     500.000    
 BOUNDARY    115   LAYER   1   ROW     8   COL    10   RATE     500.000    
 BOUNDARY    116   LAYER   1   ROW     8   COL    11   RATE     500.000    
 BOUNDARY    117   LAYER   1   ROW     8   COL    12   RATE     500.000    
 BOUNDARY    118   LAYER   1   ROW     8   COL    13   RATE     500.000    
 BOUNDARY    119   LAYER   1   ROW     8   COL    14   RATE     500.000    
 BOUNDARY    120   LAYER   2   ROW     8   COL    15   RATE     500.000    
 BOUNDARY    121   LAYER   1   ROW     9   COL     1   RATE     500.000    
 BOUNDARY    122   LAYER   1   ROW     9   COL     2   RATE     500.000    
 BOUNDARY    123   LAYER   1   ROW     9   COL     3   RATE     500.000    
 BOUNDARY    124   LAYER   1   ROW     9   COL     4   RATE     500.000    
 BOUNDARY    125   LAYER   1   ROW     9   COL     5   RATE     500.000    
 BOUNDARY    126   LAYER   1   ROW     9   COL     6   RATE     500.000    
 BOUNDARY    127   LAYER   1   ROW     9   COL     7   RATE     500.000    
 BOUNDARY    128   LAYER   1   ROW     9   COL     8   RATE     500.000    
 BOUNDARY    129   LAYER   1   ROW     9   COL     9   RATE     500.000    
 BOUNDARY    130   LAYER   1   ROW     9   COL    10   RATE     500.000    
 BOUNDARY    131   LAYER   1   ROW     9   COL    11   RATE     500.000    
 BOUNDARY    132   LAYER   1   ROW     9   COL    12   RATE     500.000    
 BOUNDARY    133   LAYER   1   ROW     9   COL    13   RATE     500.000    
 BOUNDARY    134   LAYER   1   ROW     9   COL    14   RATE     500.000    
 BOUNDARY    135   LAYER   2   ROW     9   COL    15   RATE     500.000    
 BOUNDARY    137   LAYER   1   ROW    10   COL     2   RATE     500.000    
 BOUNDARY    138   LAYER   1   ROW    10   COL     3   RATE     500.000    
 BOUNDARY    139   LAYER   1   ROW    10   COL     4   RATE     500.000    
 BOUNDARY    140   LAYER   1   ROW    10   COL     5   RATE     500.000    
 BOUNDARY    141   LAYER   1   ROW    10   COL     6   RATE     500.000    
 BOUNDARY    142   LAYER   1   ROW    10   COL     7   RATE     500.000    
 BOUNDARY    143   LAYER   1   ROW    10   COL     8   RATE     500.000    
 BOUNDARY    144   LAYER   1   ROW    10   COL     9   RATE     500.000    
 BOUNDARY    145   LAYER   1   ROW    10   COL    10   RATE     500.000    
 BOUNDARY    146   LAYER   1   ROW    10   COL    11   RATE     500.000    
 BOUNDARY    147   LAYER   1   ROW    10   COL    12   RATE     500.000    
 BOUNDARY    148   LAYER   1   ROW    10   COL    13   RATE     500.000    
 BOUNDARY    149   LAYER   1   ROW    10   COL    14   RATE     500.000    
 BOUNDARY    150   LAYER   2   ROW    10   COL    15   RATE     500.000    
 UBDSV4 SAVING CONSTANT HEADS   ON UNIT   1017 AT TIME STEP      1, STRESS PERIOD      1

 CONSTANT HEADS     PERIOD  1   STEP  1
 BOUNDARY      1   LAYER   1   ROW     1   COL     1   RATE    -1749.96      CHD-1
 BOUNDARY      2   LAYER   1   ROW     4   COL     1   RATE     2301.93    
 BOUNDARY      3   LAYER   1   ROW     5   COL     1   RATE    -2465.03      CHD_GP
 BOUNDARY      4   LAYER   1   ROW     6   COL     1   RATE     1525.48      CHD_GP
 BOUNDARY      5   LAYER   1   ROW    10   COL     1   RATE    -4325.78      CHD-10
1
  HEAD             IN LAYER   1 AT END OF TIME STEP   1 IN STRESS PERIOD    1
  ---------------------------------------------------------------------------

           1       2       3       4       5       6       7       8       9      10      11      12      13      14      15
 ...........................................................................................................................
   1   120.00  127.76  134.46  139.79  143.75  146.45  147.95  148.32  147.61  145.83  143.05  139.44  135.42  132.13  777.77
   2   117.59  126.44  133.99  139.65  143.72  146.45  147.96  148.33  147.61  145.84  143.06  139.44  135.43  132.13  777.77
   3   100.99  123.70  133.43  139.54  143.72  146.47  147.99  148.36  147.63  145.85  143.07  139.45  135.44  132.14  777.77
   4   120.00  127.07  134.22  139.78  143.83  146.54  148.03  148.40  147.66  145.88  143.09  139.47  135.45  132.15  777.77
   5   120.00  127.92  134.66  140.01  143.96  146.63  148.10  148.45  147.70  145.91  143.11  139.49  135.46  132.17  777.77
   6   120.00  127.54  134.65  140.12  144.08  146.73  148.18  148.50  147.75  145.94  143.14  139.51  135.48  132.18  777.77
   7   104.17  125.13  134.38  140.22  144.22  146.84  148.26  148.56  147.79  145.97  143.17  139.53  135.50  132.20  777.77
   8   120.64  128.44  135.35  140.62  144.43  146.97  148.34  148.62  147.83  146.00  143.19  139.55  135.51  132.21  777.77
   9   124.40  130.16  136.11  140.98  144.62  147.08  148.41  148.67  147.86  146.02  143.20  139.56  135.53  132.22  777.77
  10   120.00  129.64  136.21  141.12  144.72  147.14  148.45  148.69  147.88  146.04  143.21  139.57  135.53  132.23  777.77
1
  HEAD             IN LAYER   2 AT END OF TIME STEP   1 IN STRESS PERIOD    1
  ---------------------------------------------------------------------------

           1       2       3       4       5       6       7       8       9      10      11      12      13      14      15
 ...........................................................................................................................
   1   125.03  128.68  133.42  137.90  141.51  144.02  145.31  145.27  143.70  140.16  133.77  122.74  103.35   67.92    0.39
   2   123.89  128.06  133.17  137.81  141.49  144.02  145.32  145.28  143.71  140.16  133.78  122.74  103.35   67.92    0.39
   3   121.73  127.32  132.96  137.78  141.51  144.05  145.35  145.31  143.73  140.18  133.79  122.75  103.36   67.93    0.39
   4   124.36  128.32  133.33  137.94  141.60  144.12  145.40  145.35  143.76  140.20  133.81  122.77  103.37   67.93    0.39
   5   125.20  128.89  133.66  138.14  141.74  144.21  145.47  145.40  143.79  140.23  133.83  122.78  103.38   67.94    0.39
   6   124.96  128.87  133.78  138.29  141.87  144.32  145.55  145.46  143.84  140.27  133.85  122.80  103.40   67.95    0.39
   7   123.30  128.53  133.87  138.46  142.02  144.43  145.63  145.52  143.88  140.30  133.88  122.82  103.41   67.96    0.39
   8   125.96  129.75  134.47  138.79  142.22  144.56  145.72  145.58  143.92  140.33  133.90  122.84  103.42   67.97    0.39
   9   127.49  130.72  135.01  139.10  142.40  144.67  145.79  145.62  143.96  140.35  133.92  122.85  103.43   67.97    0.39
  10   127.35  130.89  135.22  139.25  142.50  144.73  145.83  145.65  143.97  140.36  133.93  122.86  103.44   67.97    0.39

 HEAD WILL BE SAVED ON UNIT 1018 AT END OF TIME STEP    1, STRESS PERIOD    1
1
  VOLUME BUDGET FOR ENTIRE MODEL AT END OF TIME STEP    1, STRESS PERIOD   1
  ------------------------------------------------------------------------------

     CUMULATIVE VOLUME      L**3       RATES FOR THIS TIME STEP      L**3/T
     ------------------                 ------------------------

           IN:                                      IN:
           ---                                      ---
         STORAGE(SS) =           0.0000           STORAGE(SS) =           0.0000
         STORAGE(SY) =           0.0000           STORAGE(SY) =           0.0000
    WELLS NEAR RIVER =           0.0000      WELLS NEAR RIVER =           0.0000
               RIVER =           0.0000                 RIVER =           0.0000
           GHB LAKES =       81667.2568             GHB LAKES =       81667.2568
            RECHARGE =       72500.0000              RECHARGE =       72500.0000
      CONSTANT HEADS =        9017.2683        CONSTANT HEADS =        9017.2683

            TOTAL IN =      163184.5252              TOTAL IN =      163184.5252

          OUT:                                     OUT:
          ----                                     ----
         STORAGE(SS) =           0.0000           STORAGE(SS) =           0.0000
         STORAGE(SY) =           0.0000           STORAGE(SY) =           0.0000
    WELLS NEAR RIVER =           0.0000      WELLS NEAR RIVER =           0.0000
               RIVER =       38779.5552                 RIVER =       38779.5552
           GHB LAKES =      110674.3646             GHB LAKES =      110674.3646
            RECHARGE =           0.0000              RECHARGE =           0.0000
      CONSTANT HEADS =       13730.6108        CONSTANT HEADS =       13730.6108

           TOTAL OUT =      163184.5306             TOTAL OUT =      163184.5306

            IN - OUT =      -5.4154E-03              IN - OUT =      -5.4154E-03

 PERCENT DISCREPANCY =          -0.00     PERCENT DISCREPANCY =          -0.00






         TIME SUMMARY AT END OF TIME STEP    1 IN STRESS PERIOD    1
                    SECONDS     MINUTES      HOURS       DAYS        YEARS
                    -----------------------------------------------------------
   TIME STEP LENGTH  86400.      1440.0      24.000     1.00000     2.73785E-03
 STRESS PERIOD TIME  86400.      1440.0      24.000     1.00000     2.73785E-03
         TOTAL TIME  86400.      1440.0      24.000     1.00000     2.73785E-03


 UPDATING STORAGE VALUES
 #iconvert(nodes) is 0:confined, 1:convertible

                 ICONVERT =         1
 #ss(nodes) specific storage

         SPECIFIC STORAGE =  1.000000E-05
 #sy(nodes) specific yield

           SPECIFIC YIELD =  0.200000    
 END UPDATING STORAGE VALUES
 #        k         i         j      flux     var1 var2 var3

 WEL NO.   NODE   STRESS RATE         VAR1            VAR2            VAR3            
 -------------------------------------------------------------------------------------
      1      2      3      4     -0.3500E+05      1.0000           2.000           3.000    
      2      2      8      4     -0.3500E+05       4.000           5.000           6.000    

 REUSING RIVS FROM LAST STRESS PERIOD

 REUSING GHBS FROM LAST STRESS PERIOD

                 RECHARGE =  3.000000E-03
 #L   R   C  shead  ehead  name

 CHD NO.  LAYER   ROW    COL       SHEAD           EHEAD      BOUNDARY NAME         
 -----------------------------------------------------------------------------------
      1      1      1      1       120.0           120.0      CHD-1           
      2      1      4      1       120.0           120.0                      
      3      1      5      1       120.0           120.0      CHD_GP          
      4      1      6      1       120.0           120.0      CHD_GP          
      5      1     10      1       120.0           120.0      CHD-10          

 OUTPUT CONTROL FOR STRESS PERIOD    2   TIME STEP    1
    PRINT BUDGET
    PRINT HEAD
    PRINT HEAD FOR ALL LAYERS
    SAVE BUDGET
    SAVE HEAD
    SAVE HEAD FOR ALL LAYERS
 UBDSV1 SAVING      STORAGE(SS) ON UNIT   1017 AT TIME STEP      1, STRESS PERIOD      2
 UBDSV1 SAVING      STORAGE(SY) ON UNIT   1017 AT TIME STEP      1, STRESS PERIOD      2
 UBDSV1 SAVING FLOW RIGHT FACE  ON UNIT   1017 AT TIME STEP      1, STRESS PERIOD      2
 UBDSV1 SAVING FLOW FRONT FACE  ON UNIT   1017 AT TIME STEP      1, STRESS PERIOD      2
 UBDSV1 SAVING FLOW LOWER FACE  ON UNIT   1017 AT TIME STEP      1, STRESS PERIOD      2
 UBDSV4 SAVING WELLS NEAR RIVER ON UNIT   1017 AT TIME STEP      1, STRESS PERIOD      2

 WELLS NEAR RIVER   PERIOD  2   STEP  1
 BOUNDARY      1   LAYER   2   ROW     3   COL     4   RATE    -35000.0    
 BOUNDARY      2   LAYER   2   ROW     8   COL     4   RATE    -35000.0    
 UBDSV4 SAVING RIVER            ON UNIT   1017 AT TIME STEP      1, STRESS PERIOD      2

 RIVER              PERIOD  2   STEP  1
 BOUNDARY      1   LAYER   2   ROW     1   COL    15   RATE    -3952.97    
 BOUNDARY      2   LAYER   2   ROW     2   COL    15   RATE    -3953.09      RIV2
 BOUNDARY      3   LAYER   2   ROW     3   COL    15   RATE    -3953.33      RIV3
 BOUNDARY      4   LAYER   2   ROW     4   COL    15   RATE    -3953.66    
 BOUNDARY      5   LAYER   2   ROW     5   COL    15   RATE    -3954.05    
 BOUNDARY      6   LAYER   2   ROW     6   COL    15   RATE    -3954.47    
 BOUNDARY      7   LAYER   2   ROW     7   COL    15   RATE    -3954.88      RIVX
 BOUNDARY      8   LAYER   2   ROW     8   COL    15   RATE    -3955.23      RIVX
 BOUNDARY      9   LAYER   2   ROW     9   COL    15   RATE    -3955.49      RIVX
 BOUNDARY     10   LAYER   2   ROW    10   COL    15   RATE    -3955.63    

 GHB LAKES          PERIOD  2   STEP  1
 BOUNDARY      1   LAYER   1   ROW     3   COL     1   RATE    -14940.7    
 BOUNDARY      2   LAYER   1   ROW     7   COL     1   RATE     81580.6      GHB2_UPPER
 BOUNDARY      3   LAYER   1   ROW     7   COL     1   RATE    -95864.1      GHB2_LOWER
 UBDSV4 SAVING RECHARGE         ON UNIT   1017 AT TIME STEP      1, STRESS PERIOD      2

 RECHARGE           PERIOD  2   STEP  1
 BOUNDARY      2   LAYER   1   ROW     1   COL     2   RATE     750.000    
 BOUNDARY      3   LAYER   1   ROW     1   COL     3   RATE     750.000    
 BOUNDARY      4   LAYER   1   ROW     1   COL     4   RATE     750.000    
 BOUNDARY      5   LAYER   1   ROW     1   COL     5   RATE     750.000    
 BOUNDARY      6   LAYER   1   ROW     1   COL     6   RATE     750.000    
 BOUNDARY      7   LAYER   1   ROW     1   COL     7   RATE     750.000    
 BOUNDARY      8   LAYER   1   ROW     1   COL     8   RATE     750.000    
 BOUNDARY      9   LAYER   1   ROW     1   COL     9   RATE     750.000    
 BOUNDARY     10   LAYER   1   ROW     1   COL    10   RATE     750.000    
 BOUNDARY     11   LAYER   1   ROW     1   COL    11   RATE     750.000    
 BOUNDARY     12   LAYER   1   ROW     1   COL    12   RATE     750.000    
 BOUNDARY     13   LAYER   1   ROW     1   COL    13   RATE     750.000    
 BOUNDARY     14   LAYER   1   ROW     1   COL    14   RATE     750.000    
 BOUNDARY     15   LAYER   2   ROW     1   COL    15   RATE     750.000    
 BOUNDARY     16   LAYER   1   ROW     2   COL     1   RATE     750.000    
 BOUNDARY     17   LAYER   1   ROW     2   COL     2   RATE     750.000    
 BOUNDARY     18   LAYER   1   ROW     2   COL     3   RATE     750.000    
 BOUNDARY     19   LAYER   1   ROW     2   COL     4   RATE     750.000    
 BOUNDARY     20   LAYER   1   ROW     2   COL     5   RATE     750.000    
 BOUNDARY     21   LAYER   1   ROW     2   COL     6   RATE     750.000    
 BOUNDARY     22   LAYER   1   ROW     2   COL     7   RATE     750.000    
 BOUNDARY     23   LAYER   1   ROW     2   COL     8   RATE     750.000    
 BOUNDARY     24   LAYER   1   ROW     2   COL     9   RATE     750.000    
 BOUNDARY     25   LAYER   1   ROW     2   COL    10   RATE     750.000    
 BOUNDARY     26   LAYER   1   ROW     2   COL    11   RATE     750.000    
 BOUNDARY     27   LAYER   1   ROW     2   COL    12   RATE     750.000    
 BOUNDARY     28   LAYER   1   ROW     2   COL    13   RATE     750.000    
 BOUNDARY     29   LAYER   1   ROW     2   COL    14   RATE     750.000    
 BOUNDARY     30   LAYER   2   ROW     2   COL    15   RATE     750.000    
 BOUNDARY     31   LAYER   1   ROW     3   COL     1   RATE     750.000    
 BOUNDARY     32   LAYER   1   ROW     3   COL     2   RATE     750.000    
 BOUNDARY     33   LAYER   1   ROW     3   COL     3   RATE     750.000    
 BOUNDARY     34   LAYER   1   ROW     3   COL     4   RATE     750.000    
 BOUNDARY     35   LAYER   1   ROW     3   COL     5   RATE     750.000    
 BOUNDARY     36   LAYER   1   ROW     3   COL     6   RATE     750.000    
 BOUNDARY     37   LAYER   1   ROW     3   COL     7   RATE     750.000    
 BOUNDARY     38   LAYER   1   ROW     3   COL     8   RATE     750.000    
 BOUNDARY     39   LAYER   1   ROW     3   COL     9   RATE     750.000    
 BOUNDARY     40   LAYER   1   ROW     3   COL    10   RATE     750.000    
 BOUNDARY     41   LAYER   1   ROW     3   COL    11   RATE     750.000    
 BOUNDARY     42   LAYER   1   ROW     3   COL    12   RATE     750.000    
 BOUNDARY     43   LAYER   1   ROW     3   COL    13   RATE     750.000    
 BOUNDARY     44   LAYER   1   ROW     3   COL    14   RATE     750.000    
 BOUNDARY     45   LAYER   2   ROW     3   COL    15   RATE     750.000    
 BOUNDARY     47   LAYER   1   ROW     4   COL     2   RATE     750.000    
 BOUNDARY     48   LAYER   1   ROW     4   COL     3   RATE     750.000    
 BOUNDARY     49   LAYER   1   ROW     4   COL     4   RATE     750.000    
 BOUNDARY     50   LAYER   1   ROW     4   COL     5   RATE     750.000    
 BOUNDARY     51   LAYER   1   ROW     4   COL     6   RATE     750.000    
 BOUNDARY     52   LAYER   1   ROW     4   COL     7   RATE     750.000    
 BOUNDARY     53   LAYER   1   ROW     4   COL     8   RATE     750.000    
 BOUNDARY     54   LAYER   1   ROW     4   COL     9   RATE     750.000    
 BOUNDARY     55   LAYER   1   ROW     4   COL    10   RATE     750.000    
 BOUNDARY     56   LAYER   1   ROW     4   COL    11   RATE     750.000    
 BOUNDARY     57   LAYER   1   ROW     4   COL    12   RATE     750.000    
 BOUNDARY     58   LAYER   1   ROW     4   COL    13   RATE     750.000    
 BOUNDARY     59   LAYER   1   ROW     4   COL    14   RATE     750.000    
 BOUNDARY     60   LAYER   2   ROW     4   COL    15   RATE     750.000    
 BOUNDARY     62   LAYER   1   ROW     5   COL     2   RATE     750.000    
 BOUNDARY     63   LAYER   1   ROW     5   COL     3   RATE     750.000    
 BOUNDARY     64   LAYER   1   ROW     5   COL     4   RATE     750.000    
 BOUNDARY     65   LAYER   1   ROW     5   COL     5   RATE     750.000    
 BOUNDARY     66   LAYER   1   ROW     5   COL     6   RATE     750.000    
 BOUNDARY     67   LAYER   1   ROW     5   COL     7   RATE     750.000    
 BOUNDARY     68   LAYER   1   ROW     5   COL     8   RATE     750.000    
 BOUNDARY     69   LAYER   1   ROW     5   COL     9   RATE     750.000    
 BOUNDARY     70   LAYER   1   ROW     5   COL    10   RATE     750.000    
 BOUNDARY     71   LAYER   1   ROW     5   COL    11   RATE     750.000    
 BOUNDARY     72   LAYER   1   ROW     5   COL    12   RATE     750.000    
 BOUNDARY     73   LAYER   1   ROW     5   COL    13   RATE     750.000    
 BOUNDARY     74   LAYER   1   ROW     5   COL    14   RATE     750.000    
 BOUNDARY     75   LAYER   2   ROW     5   COL    15   RATE     750.000    
 BOUNDARY     77   LAYER   1   ROW     6   COL     2   RATE     750.000    
 BOUNDARY     78   LAYER   1   ROW     6   COL     3   RATE     750.000    
 BOUNDARY     79   LAYER   1   ROW     6   COL     4   RATE     750.000    
 BOUNDARY     80   LAYER   1   ROW     6   COL     5   RATE     750.000    
 BOUNDARY     81   LAYER   1   ROW     6   COL     6   RATE     750.000    
 BOUNDARY     82   LAYER   1   ROW     6   COL     7   RATE     750.000    
 BOUNDARY     83   LAYER   1   ROW     6   COL     8   RATE     750.000    
 BOUNDARY     84   LAYER   1   ROW     6   COL     9   RATE     750.000    
 BOUNDARY     85   LAYER   1   ROW     6   COL    10   RATE     750.000    
 BOUNDARY     86   LAYER   1   ROW     6   COL    11   RATE     750.000    
 BOUNDARY     87   LAYER   1   ROW     6   COL    12   RATE     750.000    
 BOUNDARY     88   LAYER   1   ROW     6   COL    13   RATE     750.000    
 BOUNDARY     89   LAYER   1   ROW     6   COL    14   RATE     750.000    
 BOUNDARY     90   LAYER   2   ROW     6   COL    15   RATE     750.000    
 BOUNDARY     91   LAYER   1   ROW     7   COL     1   RATE     750.000    
 BOUNDARY     92   LAYER   1   ROW     7   COL     2   RATE     750.000    
 BOUNDARY     93   LAYER   1   ROW     7   COL     3   RATE     750.000    
 BOUNDARY     94   LAYER   1   ROW     7   COL     4   RATE     750.000    
 BOUNDARY     95   LAYER   1   ROW     7   COL     5   RATE     750.000    
 BOUNDARY     96   LAYER   1   ROW     7   COL     6   RATE     750.000    
 BOUNDARY     97   LAYER   1   ROW     7   COL     7   RATE     750.000    
 BOUNDARY     98   LAYER   1   ROW     7   COL     8   RATE     750.000    
 BOUNDARY     99   LAYER   1   ROW     7   COL     9   RATE     750.000    
 BOUNDARY    100   LAYER   1   ROW     7   COL    10   RATE     750.000    
 BOUNDARY    101   LAYER   1   ROW     7   COL    11   RATE     750.000    
 BOUNDARY    102   LAYER   1   ROW     7   COL    12   RATE     750.000    
 BOUNDARY    103   LAYER   1   ROW     7   COL    13   RATE     750.000    
 BOUNDARY    104   LAYER   1   ROW     7   COL    14   RATE     750.000    
 BOUNDARY    105   LAYER   2   ROW     7   COL    15   RATE     750.000    
 BOUNDARY    106   LAYER   1   ROW     8   COL     1   RATE     750.000    
 BOUNDARY    107   LAYER   1   ROW     8   COL     2   RATE     750.000    
 BOUNDARY    108   LAYER   1   ROW     8   COL     3   RATE     750.000    
 BOUNDARY    109   LAYER   1   ROW     8   COL     4   RATE     750.000    
 BOUNDARY    110   LAYER   1   ROW     8   COL     5   RATE     750.000    
 BOUNDARY    111   LAYER   1   ROW     8   COL     6   RATE     750.000    
 BOUNDARY    112   LAYER   1   ROW     8   COL     7   RATE     750.000    
 BOUNDARY    113   LAYER   1   ROW     8   COL     8   RATE     750.000    
 BOUNDARY    114   LAYER   1   ROW     8   COL     9   RATE     750.000    
 BOUNDARY    115   LAYER   1   ROW     8   COL    10   RATE     750.000    
 BOUNDARY    116   LAYER   1   ROW     8   COL    11   RATE     750.000    
 BOUNDARY    117   LAYER   1   ROW     8   COL    12   RATE     750.000    
 BOUNDARY    118   LAYER   1   ROW     8   COL    13   RATE     750.000    
 BOUNDARY    119   LAYER   1   ROW     8   COL    14   RATE     750.000    
 BOUNDARY    120   LAYER   2   ROW     8   COL    15   RATE     750.000    
 BOUNDARY    121   LAYER   1   ROW     9   COL     1   RATE     750.000    
 BOUNDARY    122   LAYER   1   ROW     9   COL     2   RATE     750.000    
 BOUNDARY    123   LAYER   1   ROW     9   COL     3   RATE     750.000    
 BOUNDARY    124   LAYER   1   ROW     9   COL     4   RATE     750.000    
 BOUNDARY    125   LAYER   1   ROW     9   COL     5   RATE     750.000    
 BOUNDARY    126   LAYER   1   ROW     9   COL     6   RATE     750.000    
 BOUNDARY    127   LAYER   1   ROW     9   COL     7   RATE     750.000    
 BOUNDARY    128   LAYER   1   ROW     9   COL     8   RATE     750.000    
 BOUNDARY    129   LAYER   1   ROW     9   COL     9   RATE     750.000    
 BOUNDARY    130   LAYER   1   ROW     9   COL    10   RATE     750.000    
 BOUNDARY    131   LAYER   1   ROW     9   COL    11   RATE     750.000    
 BOUNDARY    132   LAYER   1   ROW     9   COL    12   RATE     750.000    
 BOUNDARY    133   LAYER   1   ROW     9   COL    13   RATE     750.000    
 BOUNDARY    134   LAYER   1   ROW     9   COL    14   RATE     750.000    
 BOUNDARY    135   LAYER   2   ROW     9   COL    15   RATE     750.000    
 BOUNDARY    137   LAYER   1   ROW    10   COL     2   RATE     750.000    
 BOUNDARY    138   LAYER   1   ROW    10   COL     3   RATE     750.000    
 BOUNDARY    139   LAYER   1   ROW    10   COL     4   RATE     750.000    
 BOUNDARY    140   LAYER   1   ROW    10   COL     5   RATE     750.000    
 BOUNDARY    141   LAYER   1   ROW    10   COL     6   RATE     750.000    
 BOUNDARY    142   LAYER   1   ROW    10   COL     7   RATE     750.000    
 BOUNDARY    143   LAYER   1   ROW    10   COL     8   RATE     750.000    
 BOUNDARY    144   LAYER   1   ROW    10   COL     9   RATE     750.000    
 BOUNDARY    145   LAYER   1   ROW    10   COL    10   RATE     750.000    
 BOUNDARY    146   LAYER   1   ROW    10   COL    11   RATE     750.000    
 BOUNDARY    147   LAYER   1   ROW    10   COL    12   RATE     750.000    
 BOUNDARY    148   LAYER   1   ROW    10   COL    13   RATE     750.000    
 BOUNDARY    149   LAYER   1   ROW    10   COL    14   RATE     750.000    
 BOUNDARY    150   LAYER   2   ROW    10   COL    15   RATE     750.000    
 UBDSV4 SAVING CONSTANT HEADS   ON UNIT   1017 AT TIME STEP      1, STRESS PERIOD      2

 CONSTANT HEADS     PERIOD  2   STEP  1
 BOUNDARY      1   LAYER   1   ROW     1   COL     1   RATE    -1753.67      CHD-1
 BOUNDARY      2   LAYER   1   ROW     4   COL     1   RATE     2302.78    
 BOUNDARY      3   LAYER   1   ROW     5   COL     1   RATE    -2466.10      CHD_GP
 BOUNDARY      4   LAYER   1   ROW     6   COL     1   RATE     1523.16      CHD_GP
 BOUNDARY      5   LAYER   1   ROW    10   COL     1   RATE    -4329.81      CHD-10
1
  HEAD             IN LAYER   1 AT END OF TIME STEP   1 IN STRESS PERIOD    2
  ---------------------------------------------------------------------------

           1       2       3       4       5       6       7       8       9      10      11      12      13      14      15
 ...........................................................................................................................
   1   120.00  127.77  134.47  139.80  143.76  146.46  147.96  148.33  147.62  145.84  143.06  139.45  135.43  132.14  777.77
   2   117.60  126.45  133.99  139.64  143.73  146.46  147.97  148.34  147.62  145.85  143.07  139.45  135.44  132.14  777.77
   3   101.00  123.71  133.43  139.47  143.72  146.48  148.00  148.37  147.64  145.86  143.08  139.46  135.45  132.15  777.77
   4   120.00  127.08  134.22  139.78  143.84  146.55  148.04  148.41  147.67  145.89  143.10  139.48  135.46  132.16  777.77
   5   120.00  127.93  134.67  140.02  143.97  146.64  148.11  148.46  147.71  145.92  143.12  139.50  135.47  132.18  777.77
   6   120.00  127.55  134.66  140.13  144.09  146.74  148.19  148.51  147.76  145.95  143.15  139.52  135.49  132.19  777.77
   7   104.17  125.14  134.39  140.22  144.23  146.85  148.27  148.57  147.80  145.98  143.18  139.54  135.51  132.21  777.77
   8   120.65  128.45  135.35  140.55  144.43  146.98  148.35  148.63  147.84  146.01  143.20  139.56  135.52  132.22  777.77
   9   124.41  130.17  136.11  140.98  144.63  147.09  148.42  148.68  147.87  146.03  143.21  139.57  135.54  132.23  777.77
  10   120.00  129.65  136.22  141.13  144.73  147.15  148.46  148.70  147.89  146.05  143.22  139.58  135.54  132.24  777.77
1
  HEAD             IN LAYER   2 AT END OF TIME STEP   1 IN STRESS PERIOD    2
  ---------------------------------------------------------------------------

           1       2       3       4       5       6       7       8       9      10      11      12      13      14      15
 ...........................................................................................................................
   1   124.95  128.39  132.35  135.23  140.44  143.73  145.25  145.26  143.69  140.16  133.77  122.74  103.35   67.92    0.40
   2   123.70  127.14  128.80  122.78  137.13  143.11  145.15  145.26  143.70  140.16  133.78  122.74  103.35   67.93    0.40
   3   121.33  124.98  117.97   49.69  126.52  141.73  145.00  145.26  143.72  140.18  133.79  122.75  103.36   67.93    0.40
   4   124.16  127.40  128.97  122.92  137.24  143.20  145.23  145.32  143.75  140.20  133.81  122.77  103.37   67.94    0.40
   5   125.13  128.60  132.59  135.47  140.66  143.92  145.41  145.39  143.79  140.23  133.83  122.79  103.39   67.94    0.40
   6   124.89  128.58  132.71  135.61  140.79  144.03  145.48  145.44  143.84  140.27  133.86  122.80  103.40   67.95    0.40
   7   123.10  127.60  129.49  123.33  137.63  143.51  145.46  145.49  143.88  140.30  133.88  122.82  103.41   67.96    0.40
   8   125.56  127.41  119.37   49.70  127.12  142.22  145.37  145.53  143.92  140.33  133.90  122.84  103.42   67.97    0.40
   9   127.30  129.79  130.62  123.96  138.01  143.75  145.62  145.60  143.95  140.35  133.92  122.85  103.43   67.97    0.40
  10   127.28  130.60  134.14  136.57  141.42  144.44  145.76  145.64  143.97  140.36  133.93  122.86  103.44   67.98    0.40

 HEAD WILL BE SAVED ON UNIT 1018 AT END OF TIME STEP    1, STRESS PERIOD    2
1
  VOLUME BUDGET FOR ENTIRE MODEL AT END OF TIME STEP    1, STRESS PERIOD   2
  ------------------------------------------------------------------------------

     CUMULATIVE VOLUME      L**3       RATES FOR THIS TIME STEP      L**3/T
     ------------------                 ------------------------

           IN:                                      IN:
           ---                                      ---
         STORAGE(SS) =       29928.9694           STORAGE(SS) =       29928.9694
         STORAGE(SY) =       35541.7147           STORAGE(SY) =       35541.7147
    WELLS NEAR RIVER =           0.0000      WELLS NEAR RIVER =           0.0000
               RIVER =           0.0000                 RIVER =           0.0000
           GHB LAKES =      163247.8921             GHB LAKES =       81580.6353
            RECHARGE =      181250.0000              RECHARGE =      108750.0000
      CONSTANT HEADS =       18029.4102        CONSTANT HEADS =        9012.1418

            TOTAL IN =      427997.9864              TOTAL IN =      264813.4612

          OUT:                                     OUT:
          ----                                     ----
         STORAGE(SS) =          11.4315           STORAGE(SS) =          11.4315
         STORAGE(SY) =       30718.6889           STORAGE(SY) =       30718.6889
    WELLS NEAR RIVER =       70000.0000      WELLS NEAR RIVER =       70000.0000
               RIVER =       78322.3506                 RIVER =       39542.7955
           GHB LAKES =      221479.1407             GHB LAKES =      110804.7761
            RECHARGE =           0.0000              RECHARGE =           0.0000
      CONSTANT HEADS =       27466.3808        CONSTANT HEADS =       13735.7700

           TOTAL OUT =      427997.9926             TOTAL OUT =      264813.4620

            IN - OUT =      -6.1810E-03              IN - OUT =      -7.6564E-04

 PERCENT DISCREPANCY =          -0.00     PERCENT DISCREPANCY =          -0.00






         TIME SUMMARY AT END OF TIME STEP    1 IN STRESS PERIOD    2
                    SECONDS     MINUTES      HOURS       DAYS        YEARS
                    -----------------------------------------------------------
   TIME STEP LENGTH  86400.      1440.0      24.000     1.00000     2.73785E-03
 STRESS PERIOD TIME  86400.      1440.0      24.000     1.00000     2.73785E-03
         TOTAL TIME 1.72800E+05  2880.0      48.000      2.0000     5.47570E-03

 OUTPUT CONTROL FOR STRESS PERIOD    2   TIME STEP    2
    PRINT BUDGET
    PRINT HEAD
    PRINT HEAD FOR ALL LAYERS
    SAVE BUDGET
    SAVE HEAD
    SAVE HEAD FOR ALL LAYERS
 UBDSV1 SAVING      STORAGE(SS) ON UNIT   1017 AT TIME STEP      2, STRESS PERIOD      2
 UBDSV1 SAVING      STORAGE(SY) ON UNIT   1017 AT TIME STEP      2, STRESS PERIOD      2
 UBDSV1 SAVING FLOW RIGHT FACE  ON UNIT   1017 AT TIME STEP      2, STRESS PERIOD      2
 UBDSV1 SAVING FLOW FRONT FACE  ON UNIT   1017 AT TIME STEP      2, STRESS PERIOD      2
 UBDSV1 SAVING FLOW LOWER FACE  ON UNIT   1017 AT TIME STEP      2, STRESS PERIOD      2
 UBDSV4 SAVING WELLS NEAR RIVER ON UNIT   1017 AT TIME STEP      2, STRESS PERIOD      2

 WELLS NEAR RIVER   PERIOD  2   STEP  2
 BOUNDARY      1   LAYER   2   ROW     3   COL     4   RATE    -35000.0    
 BOUNDARY      2   LAYER   2   ROW     8   COL     4   RATE    -35000.0    
 UBDSV4 SAVING RIVER            ON UNIT   1017 AT TIME STEP      2, STRESS PERIOD      2

 RIVER              PERIOD  2   STEP  2
 BOUNDARY      1   LAYER   2   ROW     1   COL    15   RATE    -4005.95    
 BOUNDARY      2   LAYER   2   ROW     2   COL    15   RATE    -4006.07      RIV2
 BOUNDARY      3   LAYER   2   ROW     3   COL    15   RATE    -4006.30      RIV3
 BOUNDARY      4   LAYER   2   ROW     4   COL    15   RATE    -4006.63    
 BOUNDARY      5   LAYER   2   ROW     5   COL    15   RATE    -4007.02    
 BOUNDARY      6   LAYER   2   ROW     6   COL    15   RATE    -4007.44    
 BOUNDARY      7   LAYER   2   ROW     7   COL    15   RATE    -4007.85      RIVX
 BOUNDARY      8   LAYER   2   ROW     8   COL    15   RATE    -4008.20      RIVX
 BOUNDARY      9   LAYER   2   ROW     9   COL    15   RATE    -4008.47      RIVX
 BOUNDARY     10   LAYER   2   ROW    10   COL    15   RATE    -4008.60    

 GHB LAKES          PERIOD  2   STEP  2
 BOUNDARY      1   LAYER   1   ROW     3   COL     1   RATE    -14992.9    
 BOUNDARY      2   LAYER   1   ROW     7   COL     1   RATE     81538.4      GHB2_UPPER
 BOUNDARY      3   LAYER   1   ROW     7   COL     1   RATE    -95879.2      GHB2_LOWER
 UBDSV4 SAVING RECHARGE         ON UNIT   1017 AT TIME STEP      2, STRESS PERIOD      2

 RECHARGE           PERIOD  2   STEP  2
 BOUNDARY      2   LAYER   1   ROW     1   COL     2   RATE     750.000    
 BOUNDARY      3   LAYER   1   ROW     1   COL     3   RATE     750.000    
 BOUNDARY      4   LAYER   1   ROW     1   COL     4   RATE     750.000    
 BOUNDARY      5   LAYER   1   ROW     1   COL     5   RATE     750.000    
 BOUNDARY      6   LAYER   1   ROW     1   COL     6   RATE     750.000    
 BOUNDARY      7   LAYER   1   ROW     1   COL     7   RATE     750.000    
 BOUNDARY      8   LAYER   1   ROW     1   COL     8   RATE     750.000    
 BOUNDARY      9   LAYER   1   ROW     1   COL     9   RATE     750.000    
 BOUNDARY     10   LAYER   1   ROW     1   COL    10   RATE     750.000    
 BOUNDARY     11   LAYER   1   ROW     1   COL    11   RATE     750.000    
 BOUNDARY     12   LAYER   1   ROW     1   COL    12   RATE     750.000    
 BOUNDARY     13   LAYER   1   ROW     1   COL    13   RATE     750.000    
 BOUNDARY     14   LAYER   1   ROW     1   COL    14   RATE     750.000    
 BOUNDARY     15   LAYER   2   ROW     1   COL    15   RATE     750.000    
 BOUNDARY     16   LAYER   1   ROW     2   COL     1   RATE     750.000    
 BOUNDARY     17   LAYER   1   ROW     2   COL     2   RATE     750.000    
 BOUNDARY     18   LAYER   1   ROW     2   COL     3   RATE     750.000    
 BOUNDARY     19   LAYER   1   ROW     2   COL     4   RATE     750.000    
 BOUNDARY     20   LAYER   1   ROW     2   COL     5   RATE     750.000    
 BOUNDARY     21   LAYER   1   ROW     2   COL     6   RATE     750.000    
 BOUNDARY     22   LAYER   1   ROW     2   COL     7   RATE     750.000    
 BOUNDARY     23   LAYER   1   ROW     2   COL     8   RATE     750.000    
 BOUNDARY     24   LAYER   1   ROW     2   COL     9   RATE     750.000    
 BOUNDARY     25   LAYER   1   ROW     2   COL    10   RATE     750.000    
 BOUNDARY     26   LAYER   1   ROW     2   COL    11   RATE     750.000    
 BOUNDARY     27   LAYER   1   ROW     2   COL    12   RATE     750.000    
 BOUNDARY     28   LAYER   1   ROW     2   COL    13   RATE     750.000    
 BOUNDARY     29   LAYER   1   ROW     2   COL    14   RATE     750.000    
 BOUNDARY     30   LAYER   2   ROW     2   COL    15   RATE     750.000    
 BOUNDARY     31   LAYER   1   ROW     3   COL     1   RATE     750.000    
 BOUNDARY     32   LAYER   1   ROW     3   COL     2   RATE     750.000    
 BOUNDARY     33   LAYER   1   ROW     3   COL     3   RATE     750.000    
 BOUNDARY     34   LAYER   1   ROW     3   COL     4   RATE     750.000    
 BOUNDARY     35   LAYER   1   ROW     3   COL     5   RATE     750.000    
 BOUNDARY     36   LAYER   1   ROW     3   COL     6   RATE     750.000    
 BOUNDARY     37   LAYER   1   ROW     3   COL     7   RATE     750.000    
 BOUNDARY     38   LAYER   1   ROW     3   COL     8   RATE     750.000    
 BOUNDARY     39   LAYER   1   ROW     3   COL     9   RATE     750.000    
 BOUNDARY     40   LAYER   1   ROW     3   COL    10   RATE     750.000    
 BOUNDARY     41   LAYER   1   ROW     3   COL    11   RATE     750.000    
 BOUNDARY     42   LAYER   1   ROW     3   COL    12   RATE     750.000    
 BOUNDARY     43   LAYER   1   ROW     3   COL    13   RATE     750.000    
 BOUNDARY     44   LAYER   1   ROW     3   COL    14   RATE     750.000    
 BOUNDARY     45   LAYER   2   ROW     3   COL    15   RATE     750.000    
 BOUNDARY     47   LAYER   1   ROW     4   COL     2   RATE     750.000    
 BOUNDARY     48   LAYER   1   ROW     4   COL     3   RATE     750.000    
 BOUNDARY     49   LAYER   1   ROW     4   COL     4   RATE     750.000    
 BOUNDARY     50   LAYER   1   ROW     4   COL     5   RATE     750.000    
 BOUNDARY     51   LAYER   1   ROW     4   COL     6   RATE     750.000    
 BOUNDARY     52   LAYER   1   ROW     4   COL     7   RATE     750.000    
 BOUNDARY     53   LAYER   1   ROW     4   COL     8   RATE     750.000    
 BOUNDARY     54   LAYER   1   ROW     4   COL     9   RATE     750.000    
 BOUNDARY     55   LAYER   1   ROW     4   COL    10   RATE     750.000    
 BOUNDARY     56   LAYER   1   ROW     4   COL    11   RATE     750.000    
 BOUNDARY     57   LAYER   1   ROW     4   COL    12   RATE     750.000    
 BOUNDARY     58   LAYER   1   ROW     4   COL    13   RATE     750.000    
 BOUNDARY     59   LAYER   1   ROW     4   COL    14   RATE     750.000    
 BOUNDARY     60   LAYER   2   ROW     4   COL    15   RATE     750.000    
 BOUNDARY     62   LAYER   1   ROW     5   COL     2   RATE     750.000    
 BOUNDARY     63   LAYER   1   ROW     5   COL     3   RATE     750.000    
 BOUNDARY     64   LAYER   1   ROW     5   COL     4   RATE     750.000    
 BOUNDARY     65   LAYER   1   ROW     5   COL     5   RATE     750.000    
 BOUNDARY     66   LAYER   1   ROW     5   COL     6   RATE     750.000    
 BOUNDARY     67   LAYER   1   ROW     5   COL     7   RATE     750.000    
 BOUNDARY     68   LAYER   1   ROW     5   COL     8   RATE     750.000    
 BOUNDARY     69   LAYER   1   ROW     5   COL     9   RATE     750.000    
 BOUNDARY     70   LAYER   1   ROW     5   COL    10   RATE     750.000    
 BOUNDARY     71   LAYER   1   ROW     5   COL    11   RATE     750.000    
 BOUNDARY     72   LAYER   1   ROW     5   COL    12   RATE     750.000    
 BOUNDARY     73   LAYER   1   ROW     5   COL    13   RATE     750.000    
 BOUNDARY     74   LAYER   1   ROW     5   COL    14   RATE     750.000    
 BOUNDARY     75   LAYER   2   ROW     5   COL    15   RATE     750.000    
 BOUNDARY     77   LAYER   1   ROW     6   COL     2   RATE     750.000    
 BOUNDARY     78   LAYER   1   ROW     6   COL     3   RATE     750.000    
 BOUNDARY     79   LAYER   1   ROW     6   COL     4   RATE     750.000    
 BOUNDARY     80   LAYER   1   ROW     6   COL     5   RATE     750.000    
 BOUNDARY     81   LAYER   1   ROW     6   COL     6   RATE     750.000    
 BOUNDARY     82   LAYER   1   ROW     6   COL     7   RATE     750.000    
 BOUNDARY     83   LAYER   1   ROW     6   COL     8   RATE     750.000    
 BOUNDARY     84   LAYER   1   ROW     6   COL     9   RATE     750.000    
 BOUNDARY     85   LAYER   1   ROW     6   COL    10   RATE     750.000    
 BOUNDARY     86   LAYER   1   ROW     6   COL    11   RATE     750.000    
 BOUNDARY     87   LAYER   1   ROW     6   COL    12   RATE     750.000    
 BOUNDARY     88   LAYER   1   ROW     6   COL    13   RATE     750.000    
 BOUNDARY     89   LAYER   1   ROW     6   COL    14   RATE     750.000    
 BOUNDARY     90   LAYER   2   ROW     6   COL    15   RATE     750.000    
 BOUNDARY     91   LAYER   1   ROW     7   COL     1   RATE     750.000    
 BOUNDARY     92   LAYER   1   ROW     7   COL     2   RATE     750.000    
 BOUNDARY     93   LAYER   1   ROW     7   COL     3   RATE     750.000    
 BOUNDARY     94   LAYER   1   ROW     7   COL     4   RATE     750.000    
 BOUNDARY     95   LAYER   1   ROW     7   COL     5   RATE     750.000    
 BOUNDARY     96   LAYER   1   ROW     7   COL     6   RATE     750.000    
 BOUNDARY     97   LAYER   1   ROW     7   COL     7   RATE     750.000    
 BOUNDARY     98   LAYER   1   ROW     7   COL     8   RATE     750.000    
 BOUNDARY     99   LAYER   1   ROW     7   COL     9   RATE     750.000    
 BOUNDARY    100   LAYER   1   ROW     7   COL    10   RATE     750.000    
 BOUNDARY    101   LAYER   1   ROW     7   COL    11   RATE     750.000    
 BOUNDARY    102   LAYER   1   ROW     7   COL    12   RATE     750.000    
 BOUNDARY    103   LAYER   1   ROW     7   COL    13   RATE     750.000    
 BOUNDARY    104   LAYER   1   ROW     7   COL    14   RATE     750.000    
 BOUNDARY    105   LAYER   2   ROW     7   COL    15   RATE     750.000    
 BOUNDARY    106   LAYER   1   ROW     8   COL     1   RATE     750.000    
 BOUNDARY    107   LAYER   1   ROW     8   COL     2   RATE     750.000    
 BOUNDARY    108   LAYER   1   ROW     8   COL     3   RATE     750.000    
 BOUNDARY    109   LAYER   1   ROW     8   COL     4   RATE     750.000    
 BOUNDARY    110   LAYER   1   ROW     8   COL     5   RATE     750.000    
 BOUNDARY    111   LAYER   1   ROW     8   COL     6   RATE     750.000    
 BOUNDARY    112   LAYER   1   ROW     8   COL     7   RATE     750.000    
 BOUNDARY    113   LAYER   1   ROW     8   COL     8   RATE     750.000    
 BOUNDARY    114   LAYER   1   ROW     8   COL     9   RATE     750.000    
 BOUNDARY    115   LAYER   1   ROW     8   COL    10   RATE     750.000    
 BOUNDARY    116   LAYER   1   ROW     8   COL    11   RATE     750.000    
 BOUNDARY    117   LAYER   1   ROW     8   COL    12   RATE     750.000    
 BOUNDARY    118   LAYER   1   ROW     8   COL    13   RATE     750.000    
 BOUNDARY    119   LAYER   1   ROW     8   COL    14   RATE     750.000    
 BOUNDARY    120   LAYER   2   ROW     8   COL    15   RATE     750.000    
 BOUNDARY    121   LAYER   1   ROW     9   COL     1   RATE     750.000    
 BOUNDARY    122   LAYER   1   ROW     9   COL     2   RATE     750.000    
 BOUNDARY    123   LAYER   1   ROW     9   COL     3   RATE     750.000    
 BOUNDARY    124   LAYER   1   ROW     9   COL     4   RATE     750.000    
 BOUNDARY    125   LAYER   1   ROW     9   COL     5   RATE     750.000    
 BOUNDARY    126   LAYER   1   ROW     9   COL     6   RATE     750.000    
 BOUNDARY    127   LAYER   1   ROW     9   COL     7   RATE     750.000    
 BOUNDARY    128   LAYER   1   ROW     9   COL     8   RATE     750.000    
 BOUNDARY    129   LAYER   1   ROW     9   COL     9   RATE     750.000    
 BOUNDARY    130   LAYER   1   ROW     9   COL    10   RATE     750.000    
 BOUNDARY    131   LAYER   1   ROW     9   COL    11   RATE     750.000    
 BOUNDARY    132   LAYER   1   ROW     9   COL    12   RATE     750.000    
 BOUNDARY    133   LAYER   1   ROW     9   COL    13   RATE     750.000    
 BOUNDARY    134   LAYER   1   ROW     9   COL    14   RATE     750.000    
 BOUNDARY    135   LAYER   2   ROW     9   COL    15   RATE     750.000    
 BOUNDARY    137   LAYER   1   ROW    10   COL     2   RATE     750.000    
 BOUNDARY    138   LAYER   1   ROW    10   COL     3   RATE     750.000    
 BOUNDARY    139   LAYER   1   ROW    10   COL     4   RATE     750.000    
 BOUNDARY    140   LAYER   1   ROW    10   COL     5   RATE     750.000    
 BOUNDARY    141   LAYER   1   ROW    10   COL     6   RATE     750.000    
 BOUNDARY    142   LAYER   1   ROW    10   COL     7   RATE     750.000    
 BOUNDARY    143   LAYER   1   ROW    10   COL     8   RATE     750.000    
 BOUNDARY    144   LAYER   1   ROW    10   COL     9   RATE     750.000    
 BOUNDARY    145   LAYER   1   ROW    10   COL    10   RATE     750.000    
 BOUNDARY    146   LAYER   1   ROW    10   COL    11   RATE     750.000    
 BOUNDARY    147   LAYER   1   ROW    10   COL    12   RATE     750.000    
 BOUNDARY    148   LAYER   1   ROW    10   COL    13   RATE     750.000    
 BOUNDARY    149   LAYER   1   ROW    10   COL    14   RATE     750.000    
 BOUNDARY    150   LAYER   2   ROW    10   COL    15   RATE     750.000    
 UBDSV4 SAVING CONSTANT HEADS   ON UNIT   1017 AT TIME STEP      2, STRESS PERIOD      2

 CONSTANT HEADS     PERIOD  2   STEP  2
 BOUNDARY      1   LAYER   1   ROW     1   COL     1   RATE    -1751.68      CHD-1
 BOUNDARY      2   LAYER   1   ROW     4   COL     1   RATE     2313.10    
 BOUNDARY      3   LAYER   1   ROW     5   COL     1   RATE    -2461.62      CHD_GP
 BOUNDARY      4   LAYER   1   ROW     6   COL     1   RATE     1527.06      CHD_GP
 BOUNDARY      5   LAYER   1   ROW    10   COL     1   RATE    -4328.08      CHD-10
1
  HEAD             IN LAYER   1 AT END OF TIME STEP   2 IN STRESS PERIOD    2
  ---------------------------------------------------------------------------

           1       2       3       4       5       6       7       8       9      10      11      12      13      14      15
 ...........................................................................................................................
   1   120.00  127.78  134.48  139.80  143.77  146.47  147.97  148.34  147.63  145.85  143.07  139.46  135.44  132.15  777.77
   2   117.61  126.46  134.00  139.63  143.73  146.46  147.98  148.35  147.63  145.86  143.08  139.46  135.45  132.15  777.77
   3   101.00  123.71  133.42  139.40  143.71  146.48  148.00  148.38  147.65  145.87  143.09  139.47  135.46  132.16  777.77
   4   120.00  127.09  134.22  139.77  143.84  146.56  148.05  148.42  147.68  145.90  143.11  139.49  135.47  132.17  777.77
   5   120.00  127.93  134.68  140.02  143.98  146.65  148.12  148.47  147.72  145.93  143.13  139.51  135.48  132.19  777.77
   6   120.00  127.56  134.67  140.13  144.10  146.75  148.20  148.52  147.77  145.96  143.16  139.53  135.50  132.20  777.77
   7   104.18  125.15  134.39  140.21  144.23  146.86  148.28  148.58  147.81  145.99  143.19  139.55  135.52  132.22  777.77
   8   120.66  128.46  135.34  140.48  144.42  146.98  148.36  148.64  147.85  146.02  143.21  139.57  135.53  132.23  777.77
   9   124.42  130.18  136.12  140.97  144.63  147.10  148.43  148.69  147.88  146.04  143.22  139.58  135.55  132.24  777.77
  10   120.00  129.66  136.23  141.13  144.74  147.16  148.47  148.71  147.90  146.06  143.23  139.59  135.55  132.25  777.77
1
  HEAD             IN LAYER   2 AT END OF TIME STEP   2 IN STRESS PERIOD    2
  ---------------------------------------------------------------------------

           1       2       3       4       5       6       7       8       9      10      11      12      13      14      15
 ...........................................................................................................................
   1   124.66  127.63  130.42  132.10  138.51  142.98  145.02  145.20  143.68  140.16  133.77  122.74  103.35   67.93    0.40
   2   123.16  125.56  124.48  115.98  132.81  141.55  144.73  145.16  143.68  140.16  133.78  122.75  103.36   67.93    0.40
   3   120.54  122.45  111.27   48.92  119.82  139.23  144.36  145.12  143.69  140.18  133.79  122.76  103.36   67.93    0.40
   4   123.63  125.82  124.65  116.11  132.93  141.65  144.81  145.22  143.73  140.20  133.81  122.77  103.38   67.94    0.40
   5   124.84  127.83  130.66  132.34  138.73  143.17  145.18  145.33  143.78  140.23  133.83  122.79  103.39   67.95    0.40
   6   124.60  127.81  130.76  132.46  138.85  143.27  145.26  145.39  143.83  140.27  133.86  122.81  103.40   67.96    0.40
   7   122.56  126.01  125.11  116.41  133.27  141.94  145.03  145.39  143.86  140.30  133.88  122.83  103.42   67.97    0.40
   8   124.76  124.85  112.56   48.94  120.32  139.69  144.72  145.38  143.89  140.33  133.90  122.84  103.43   67.97    0.40
   9   126.76  128.20  126.25  117.04  133.64  142.18  145.19  145.50  143.93  140.35  133.92  122.85  103.44   67.98    0.40
  10   126.98  129.82  132.19  133.40  139.48  143.69  145.54  145.58  143.96  140.36  133.93  122.86  103.44   67.98    0.40

 HEAD WILL BE SAVED ON UNIT 1018 AT END OF TIME STEP    2, STRESS PERIOD    2
1
  VOLUME BUDGET FOR ENTIRE MODEL AT END OF TIME STEP    2, STRESS PERIOD   2
  ------------------------------------------------------------------------------

     CUMULATIVE VOLUME      L**3       RATES FOR THIS TIME STEP      L**3/T
     ------------------                 ------------------------

           IN:                                      IN:
           ---                                      ---
         STORAGE(SS) =       48044.6967           STORAGE(SS) =       18115.7274
         STORAGE(SY) =       80217.2680           STORAGE(SY) =       44675.5532
    WELLS NEAR RIVER =           0.0000      WELLS NEAR RIVER =           0.0000
               RIVER =           0.0000                 RIVER =           0.0000
           GHB LAKES =      244786.2678             GHB LAKES =       81538.3757
            RECHARGE =      290000.0000              RECHARGE =      108750.0000
      CONSTANT HEADS =       27037.8239        CONSTANT HEADS =        9008.4138

            TOTAL IN =      690086.0564              TOTAL IN =      262088.0701

          OUT:                                     OUT:
          ----                                     ----
         STORAGE(SS) =          27.8850           STORAGE(SS) =          16.4535
         STORAGE(SY) =       58136.1337           STORAGE(SY) =       27417.4447
    WELLS NEAR RIVER =      140000.0000      WELLS NEAR RIVER =       70000.0000
               RIVER =      118394.8819                 RIVER =       40072.5313
           GHB LAKES =      332351.1476             GHB LAKES =      110872.0070
            RECHARGE =           0.0000              RECHARGE =           0.0000
      CONSTANT HEADS =       41176.0144        CONSTANT HEADS =       13709.6336

           TOTAL OUT =      690086.0626             TOTAL OUT =      262088.0701

            IN - OUT =      -6.1899E-03              IN - OUT =      -8.9510E-06

 PERCENT DISCREPANCY =          -0.00     PERCENT DISCREPANCY =          -0.00






         TIME SUMMARY AT END OF TIME STEP    2 IN STRESS PERIOD    2
                    SECONDS     MINUTES      HOURS       DAYS        YEARS
                    -----------------------------------------------------------
   TIME STEP LENGTH  86400.      1440.0      24.000     1.00000     2.73785E-03
 STRESS PERIOD TIME 1.72800E+05  2880.0      48.000      2.0000     5.47570E-03
         TOTAL TIME 2.59200E+05  4320.0      72.000      3.0000     8.21355E-03

 OUTPUT CONTROL FOR STRESS PERIOD    2   TIME STEP    3
    PRINT BUDGET
    PRINT HEAD
    PRINT HEAD FOR ALL LAYERS
    SAVE BUDGET
    SAVE HEAD
    SAVE HEAD FOR ALL LAYERS
 UBDSV1 SAVING      STORAGE(SS) ON UNIT   1017 AT TIME STEP      3, STRESS PERIOD      2
 UBDSV1 SAVING      STORAGE(SY) ON UNIT   1017 AT TIME STEP      3, STRESS PERIOD      2
 UBDSV1 SAVING FLOW RIGHT FACE  ON UNIT   1017 AT TIME STEP      3, STRESS PERIOD      2
 UBDSV1 SAVING FLOW FRONT FACE  ON UNIT   1017 AT TIME STEP      3, STRESS PERIOD      2
 UBDSV1 SAVING FLOW LOWER FACE  ON UNIT   1017 AT TIME STEP      3, STRESS PERIOD      2
 UBDSV4 SAVING WELLS NEAR RIVER ON UNIT   1017 AT TIME STEP      3, STRESS PERIOD      2

 WELLS NEAR RIVER   PERIOD  2   STEP  3
 BOUNDARY      1   LAYER   2   ROW     3   COL     4   RATE    -35000.0    
 BOUNDARY      2   LAYER   2   ROW     8   COL     4   RATE    -35000.0    
 UBDSV4 SAVING RIVER            ON UNIT   1017 AT TIME STEP      3, STRESS PERIOD      2

 RIVER              PERIOD  2   STEP  3
 BOUNDARY      1   LAYER   2   ROW     1   COL    15   RATE    -4042.74    
 BOUNDARY      2   LAYER   2   ROW     2   COL    15   RATE    -4042.86      RIV2
 BOUNDARY      3   LAYER   2   ROW     3   COL    15   RATE    -4043.10      RIV3
 BOUNDARY      4   LAYER   2   ROW     4   COL    15   RATE    -4043.43    
 BOUNDARY      5   LAYER   2   ROW     5   COL    15   RATE    -4043.82    
 BOUNDARY      6   LAYER   2   ROW     6   COL    15   RATE    -4044.24    
 BOUNDARY      7   LAYER   2   ROW     7   COL    15   RATE    -4044.65      RIVX
 BOUNDARY      8   LAYER   2   ROW     8   COL    15   RATE    -4045.00      RIVX
 BOUNDARY      9   LAYER   2   ROW     9   COL    15   RATE    -4045.26      RIVX
 BOUNDARY     10   LAYER   2   ROW    10   COL    15   RATE    -4045.40    

 GHB LAKES          PERIOD  2   STEP  3
 BOUNDARY      1   LAYER   1   ROW     3   COL     1   RATE    -15015.3    
 BOUNDARY      2   LAYER   1   ROW     7   COL     1   RATE     81521.3      GHB2_UPPER
 BOUNDARY      3   LAYER   1   ROW     7   COL     1   RATE    -95885.2      GHB2_LOWER
 UBDSV4 SAVING RECHARGE         ON UNIT   1017 AT TIME STEP      3, STRESS PERIOD      2

 RECHARGE           PERIOD  2   STEP  3
 BOUNDARY      2   LAYER   1   ROW     1   COL     2   RATE     750.000    
 BOUNDARY      3   LAYER   1   ROW     1   COL     3   RATE     750.000    
 BOUNDARY      4   LAYER   1   ROW     1   COL     4   RATE     750.000    
 BOUNDARY      5   LAYER   1   ROW     1   COL     5   RATE     750.000    
 BOUNDARY      6   LAYER   1   ROW     1   COL     6   RATE     750.000    
 BOUNDARY      7   LAYER   1   ROW     1   COL     7   RATE     750.000    
 BOUNDARY      8   LAYER   1   ROW     1   COL     8   RATE     750.000    
 BOUNDARY      9   LAYER   1   ROW     1   COL     9   RATE     750.000    
 BOUNDARY     10   LAYER   1   ROW     1   COL    10   RATE     750.000    
 BOUNDARY     11   LAYER   1   ROW     1   COL    11   RATE     750.000    
 BOUNDARY     12   LAYER   1   ROW     1   COL    12   RATE     750.000    
 BOUNDARY     13   LAYER   1   ROW     1   COL    13   RATE     750.000    
 BOUNDARY     14   LAYER   1   ROW     1   COL    14   RATE     750.000    
 BOUNDARY     15   LAYER   2   ROW     1   COL    15   RATE     750.000    
 BOUNDARY     16   LAYER   1   ROW     2   COL     1   RATE     750.000    
 BOUNDARY     17   LAYER   1   ROW     2   COL     2   RATE     750.000    
 BOUNDARY     18   LAYER   1   ROW     2   COL     3   RATE     750.000    
 BOUNDARY     19   LAYER   1   ROW     2   COL     4   RATE     750.000    
 BOUNDARY     20   LAYER   1   ROW     2   COL     5   RATE     750.000    
 BOUNDARY     21   LAYER   1   ROW     2   COL     6   RATE     750.000    
 BOUNDARY     22   LAYER   1   ROW     2   COL     7   RATE     750.000    
 BOUNDARY     23   LAYER   1   ROW     2   COL     8   RATE     750.000    
 BOUNDARY     24   LAYER   1   ROW     2   COL     9   RATE     750.000    
 BOUNDARY     25   LAYER   1   ROW     2   COL    10   RATE     750.000    
 BOUNDARY     26   LAYER   1   ROW     2   COL    11   RATE     750.000    
 BOUNDARY     27   LAYER   1   ROW     2   COL    12   RATE     750.000    
 BOUNDARY     28   LAYER   1   ROW     2   COL    13   RATE     750.000    
 BOUNDARY     29   LAYER   1   ROW     2   COL    14   RATE     750.000    
 BOUNDARY     30   LAYER   2   ROW     2   COL    15   RATE     750.000    
 BOUNDARY     31   LAYER   1   ROW     3   COL     1   RATE     750.000    
 BOUNDARY     32   LAYER   1   ROW     3   COL     2   RATE     750.000    
 BOUNDARY     33   LAYER   1   ROW     3   COL     3   RATE     750.000    
 BOUNDARY     34   LAYER   1   ROW     3   COL     4   RATE     750.000    
 BOUNDARY     35   LAYER   1   ROW     3   COL     5   RATE     750.000    
 BOUNDARY     36   LAYER   1   ROW     3   COL     6   RATE     750.000    
 BOUNDARY     37   LAYER   1   ROW     3   COL     7   RATE     750.000    
 BOUNDARY     38   LAYER   1   ROW     3   COL     8   RATE     750.000    
 BOUNDARY     39   LAYER   1   ROW     3   COL     9   RATE     750.000    
 BOUNDARY     40   LAYER   1   ROW     3   COL    10   RATE     750.000    
 BOUNDARY     41   LAYER   1   ROW     3   COL    11   RATE     750.000    
 BOUNDARY     42   LAYER   1   ROW     3   COL    12   RATE     750.000    
 BOUNDARY     43   LAYER   1   ROW     3   COL    13   RATE     750.000    
 BOUNDARY     44   LAYER   1   ROW     3   COL    14   RATE     750.000    
 BOUNDARY     45   LAYER   2   ROW     3   COL    15   RATE     750.000    
 BOUNDARY     47   LAYER   1   ROW     4   COL     2   RATE     750.000    
 BOUNDARY     48   LAYER   1   ROW     4   COL     3   RATE     750.000    
 BOUNDARY     49   LAYER   1   ROW     4   COL     4   RATE     750.000    
 BOUNDARY     50   LAYER   1   ROW     4   COL     5   RATE     750.000    
 BOUNDARY     51   LAYER   1   ROW     4   COL     6   RATE     750.000    
 BOUNDARY     52   LAYER   1   ROW     4   COL     7   RATE     750.000    
 BOUNDARY     53   LAYER   1   ROW     4   COL     8   RATE     750.000    
 BOUNDARY     54   LAYER   1   ROW     4   COL     9   RATE     750.000    
 BOUNDARY     55   LAYER   1   ROW     4   COL    10   RATE     750.000    
 BOUNDARY     56   LAYER   1   ROW     4   COL    11   RATE     750.000    
 BOUNDARY     57   LAYER   1   ROW     4   COL    12   RATE     750.000    
 BOUNDARY     58   LAYER   1   ROW     4   COL    13   RATE     750.000    
 BOUNDARY     59   LAYER   1   ROW     4   COL    14   RATE     750.000    
 BOUNDARY     60   LAYER   2   ROW     4   COL    15   RATE     750.000    
 BOUNDARY     62   LAYER   1   ROW     5   COL     2   RATE     750.000    
 BOUNDARY     63   LAYER   1   ROW     5   COL     3   RATE     750.000    
 BOUNDARY     64   LAYER   1   ROW     5   COL     4   RATE     750.000    
 BOUNDARY     65   LAYER   1   ROW     5   COL     5   RATE     750.000    
 BOUNDARY     66   LAYER   1   ROW     5   COL     6   RATE     750.000    
 BOUNDARY     67   LAYER   1   ROW     5   COL     7   RATE     750.000    
 BOUNDARY     68   LAYER   1   ROW     5   COL     8   RATE     750.000    
 BOUNDARY     69   LAYER   1   ROW     5   COL     9   RATE     750.000    
 BOUNDARY     70   LAYER   1   ROW     5   COL    10   RATE     750.000    
 BOUNDARY     71   LAYER   1   ROW     5   COL    11   RATE     750.000    
 BOUNDARY     72   LAYER   1   ROW     5   COL    12   RATE     750.000    
 BOUNDARY     73   LAYER   1   ROW     5   COL    13   RATE     750.000    
 BOUNDARY     74   LAYER   1   ROW     5   COL    14   RATE     750.000    
 BOUNDARY     75   LAYER   2   ROW     5   COL    15   RATE     750.000    
 BOUNDARY     77   LAYER   1   ROW     6   COL     2   RATE     750.000    
 BOUNDARY     78   LAYER   1   ROW     6   COL     3   RATE     750.000    
 BOUNDARY     79   LAYER   1   ROW     6   COL     4   RATE     750.000    
 BOUNDARY     80   LAYER   1   ROW     6   COL     5   RATE     750.000    
 BOUNDARY     81   LAYER   1   ROW     6   COL     6   RATE     750.000    
 BOUNDARY     82   LAYER   1   ROW     6   COL     7   RATE     750.000    
 BOUNDARY     83   LAYER   1   ROW     6   COL     8   RATE     750.000    
 BOUNDARY     84   LAYER   1   ROW     6   COL     9   RATE     750.000    
 BOUNDARY     85   LAYER   1   ROW     6   COL    10   RATE     750.000    
 BOUNDARY     86   LAYER   1   ROW     6   COL    11   RATE     750.000    
 BOUNDARY     87   LAYER   1   ROW     6   COL    12   RATE     750.000    
 BOUNDARY     88   LAYER   1   ROW     6   COL    13   RATE     750.000    
 BOUNDARY     89   LAYER   1   ROW     6   COL    14   RATE     750.000    
 BOUNDARY     90   LAYER   2   ROW     6   COL    15   RATE     750.000    
 BOUNDARY     91   LAYER   1   ROW     7   COL     1   RATE     750.000    
 BOUNDARY     92   LAYER   1   ROW     7   COL     2   RATE     750.000    
 BOUNDARY     93   LAYER   1   ROW     7   COL     3   RATE     750.000    
 BOUNDARY     94   LAYER   1   ROW     7   COL     4   RATE     750.000    
 BOUNDARY     95   LAYER   1   ROW     7   COL     5   RATE     750.000    
 BOUNDARY     96   LAYER   1   ROW     7   COL     6   RATE     750.000    
 BOUNDARY     97   LAYER   1   ROW     7   COL     7   RATE     750.000    
 BOUNDARY     98   LAYER   1   ROW     7   COL     8   RATE     750.000    
 BOUNDARY     99   LAYER   1   ROW     7   COL     9   RATE     750.000    
 BOUNDARY    100   LAYER   1   ROW     7   COL    10   RATE     750.000    
 BOUNDARY    101   LAYER   1   ROW     7   COL    11   RATE     750.000    
 BOUNDARY    102   LAYER   1   ROW     7   COL    12   RATE     750.000    
 BOUNDARY    103   LAYER   1   ROW     7   COL    13   RATE     750.000    
 BOUNDARY    104   LAYER   1   ROW     7   COL    14   RATE     750.000    
 BOUNDARY    105   LAYER   2   ROW     7   COL    15   RATE     750.000    
 BOUNDARY    106   LAYER   1   ROW     8   COL     1   RATE     750.000    
 BOUNDARY    107   LAYER   1   ROW     8   COL     2   RATE     750.000    
 BOUNDARY    108   LAYER   1   ROW     8   COL     3   RATE     750.000    
 BOUNDARY    109   LAYER   1   ROW     8   COL     4   RATE     750.000    
 BOUNDARY    110   LAYER   1   ROW     8   COL     5   RATE     750.000    
 BOUNDARY    111   LAYER   1   ROW     8   COL     6   RATE     750.000    
 BOUNDARY    112   LAYER   1   ROW     8   COL     7   RATE     750.000    
 BOUNDARY    113   LAYER   1   ROW     8   COL     8   RATE     750.000    
 BOUNDARY    114   LAYER   1   ROW     8   COL     9   RATE     750.000    
 BOUNDARY    115   LAYER   1   ROW     8   COL    10   RATE     750.000    
 BOUNDARY    116   LAYER   1   ROW     8   COL    11   RATE     750.000    
 BOUNDARY    117   LAYER   1   ROW     8   COL    12   RATE     750.000    
 BOUNDARY    118   LAYER   1   ROW     8   COL    13   RATE     750.000    
 BOUNDARY    119   LAYER   1   ROW     8   COL    14   RATE     750.000    
 BOUNDARY    120   LAYER   2   ROW     8   COL    15   RATE     750.000    
 BOUNDARY    121   LAYER   1   ROW     9   COL     1   RATE     750.000    
 BOUNDARY    122   LAYER   1   ROW     9   COL     2   RATE     750.000    
 BOUNDARY    123   LAYER   1   ROW     9   COL     3   RATE     750.000    
 BOUNDARY    124   LAYER   1   ROW     9   COL     4   RATE     750.000    
 BOUNDARY    125   LAYER   1   ROW     9   COL     5   RATE     750.000    
 BOUNDARY    126   LAYER   1   ROW     9   COL     6   RATE     750.000    
 BOUNDARY    127   LAYER   1   ROW     9   COL     7   RATE     750.000    
 BOUNDARY    128   LAYER   1   ROW     9   COL     8   RATE     750.000    
 BOUNDARY    129   LAYER   1   ROW     9   COL     9   RATE     750.000    
 BOUNDARY    130   LAYER   1   ROW     9   COL    10   RATE     750.000    
 BOUNDARY    131   LAYER   1   ROW     9   COL    11   RATE     750.000    
 BOUNDARY    132   LAYER   1   ROW     9   COL    12   RATE     750.000    
 BOUNDARY    133   LAYER   1   ROW     9   COL    13   RATE     750.000    
 BOUNDARY    134   LAYER   1   ROW     9   COL    14   RATE     750.000    
 BOUNDARY    135   LAYER   2   ROW     9   COL    15   RATE     750.000    
 BOUNDARY    137   LAYER   1   ROW    10   COL     2   RATE     750.000    
 BOUNDARY    138   LAYER   1   ROW    10   COL     3   RATE     750.000    
 BOUNDARY    139   LAYER   1   ROW    10   COL     4   RATE     750.000    
 BOUNDARY    140   LAYER   1   ROW    10   COL     5   RATE     750.000    
 BOUNDARY    141   LAYER   1   ROW    10   COL     6   RATE     750.000    
 BOUNDARY    142   LAYER   1   ROW    10   COL     7   RATE     750.000    
 BOUNDARY    143   LAYER   1   ROW    10   COL     8   RATE     750.000    
 BOUNDARY    144   LAYER   1   ROW    10   COL     9   RATE     750.000    
 BOUNDARY    145   LAYER   1   ROW    10   COL    10   RATE     750.000    
 BOUNDARY    146   LAYER   1   ROW    10   COL    11   RATE     750.000    
 BOUNDARY    147   LAYER   1   ROW    10   COL    12   RATE     750.000    
 BOUNDARY    148   LAYER   1   ROW    10   COL    13   RATE     750.000    
 BOUNDARY    149   LAYER   1   ROW    10   COL    14   RATE     750.000    
 BOUNDARY    150   LAYER   2   ROW    10   COL    15   RATE     750.000    
 UBDSV4 SAVING CONSTANT HEADS   ON UNIT   1017 AT TIME STEP      3, STRESS PERIOD      2

 CONSTANT HEADS     PERIOD  2   STEP  3
 BOUNDARY      1   LAYER   1   ROW     1   COL     1   RATE    -1743.77      CHD-1
 BOUNDARY      2   LAYER   1   ROW     4   COL     1   RATE     2329.44    
 BOUNDARY      3   LAYER   1   ROW     5   COL     1   RATE    -2451.45      CHD_GP
 BOUNDARY      4   LAYER   1   ROW     6   COL     1   RATE     1537.05      CHD_GP
 BOUNDARY      5   LAYER   1   ROW    10   COL     1   RATE    -4320.35      CHD-10
1
  HEAD             IN LAYER   1 AT END OF TIME STEP   3 IN STRESS PERIOD    2
  ---------------------------------------------------------------------------

           1       2       3       4       5       6       7       8       9      10      11      12      13      14      15
 ...........................................................................................................................
   1   120.00  127.79  134.48  139.80  143.78  146.47  147.98  148.35  147.64  145.86  143.08  139.47  135.45  132.16  777.77
   2   117.62  126.47  133.99  139.62  143.73  146.47  147.99  148.36  147.64  145.87  143.09  139.47  135.46  132.16  777.77
   3   101.00  123.72  133.40  139.33  143.69  146.49  148.01  148.39  147.66  145.88  143.10  139.48  135.47  132.17  777.77
   4   120.00  127.10  134.22  139.75  143.84  146.56  148.06  148.43  147.69  145.91  143.12  139.50  135.48  132.18  777.77
   5   120.00  127.94  134.68  140.02  143.99  146.66  148.13  148.48  147.73  145.94  143.14  139.52  135.49  132.20  777.77
   6   120.00  127.56  134.67  140.13  144.11  146.76  148.21  148.53  147.78  145.97  143.17  139.54  135.51  132.21  777.77
   7   104.18  125.15  134.39  140.19  144.23  146.86  148.29  148.59  147.82  146.00  143.20  139.56  135.53  132.23  777.77
   8   120.67  128.46  135.32  140.41  144.40  146.98  148.37  148.65  147.86  146.03  143.22  139.58  135.54  132.24  777.77
   9   124.42  130.18  136.11  140.95  144.63  147.10  148.44  148.70  147.89  146.05  143.23  139.59  135.56  132.25  777.77
  10   120.00  129.67  136.24  141.13  144.74  147.17  148.48  148.72  147.91  146.07  143.24  139.60  135.56  132.26  777.77
1
  HEAD             IN LAYER   2 AT END OF TIME STEP   3 IN STRESS PERIOD    2
  ---------------------------------------------------------------------------

           1       2       3       4       5       6       7       8       9      10      11      12      13      14      15
 ...........................................................................................................................
   1   124.16  126.61  128.47  129.55  136.57  142.00  144.64  145.08  143.65  140.15  133.78  122.74  103.36   67.93    0.40
   2   122.43  124.01  121.48  112.50  129.82  140.04  144.17  144.99  143.64  140.15  133.78  122.75  103.36   67.93    0.40
   3   119.61  120.49  107.91   48.13  116.49  137.32  143.65  144.91  143.64  140.17  133.79  122.76  103.37   67.94    0.40
   4   122.89  124.26  121.64  112.63  129.93  140.14  144.25  145.05  143.69  140.19  133.81  122.77  103.38   67.95    0.40
   5   124.33  126.82  128.70  129.78  136.78  142.19  144.80  145.21  143.75  140.23  133.84  122.79  103.39   67.95    0.40
   6   124.09  126.79  128.79  129.88  136.89  142.28  144.88  145.27  143.79  140.26  133.86  122.81  103.41   67.96    0.40
   7   121.82  124.43  122.07  112.89  130.24  140.41  144.47  145.22  143.82  140.29  133.88  122.83  103.42   67.97    0.40
   8   123.83  122.86  109.16   48.16  116.93  137.76  144.00  145.17  143.84  140.32  133.91  122.84  103.43   67.98    0.40
   9   126.02  126.62  123.21  113.52  130.61  140.65  144.62  145.32  143.89  140.34  133.92  122.86  103.44   67.98    0.40
  10   126.48  128.80  130.22  130.82  137.51  142.70  145.16  145.46  143.93  140.36  133.93  122.86  103.45   67.99    0.40

 HEAD WILL BE SAVED ON UNIT 1018 AT END OF TIME STEP    3, STRESS PERIOD    2
1
  VOLUME BUDGET FOR ENTIRE MODEL AT END OF TIME STEP    3, STRESS PERIOD   2
  ------------------------------------------------------------------------------

     CUMULATIVE VOLUME      L**3       RATES FOR THIS TIME STEP      L**3/T
     ------------------                 ------------------------

           IN:                                      IN:
           ---                                      ---
         STORAGE(SS) =       62092.7460           STORAGE(SS) =       14048.0493
         STORAGE(SY) =      126972.0299           STORAGE(SY) =       46754.7620
    WELLS NEAR RIVER =           0.0000      WELLS NEAR RIVER =           0.0000
               RIVER =           0.0000                 RIVER =           0.0000
           GHB LAKES =      326307.6000             GHB LAKES =       81521.3322
            RECHARGE =      398750.0000              RECHARGE =      108750.0000
      CONSTANT HEADS =       36043.4817        CONSTANT HEADS =        9005.6578

            TOTAL IN =      950165.8577              TOTAL IN =      260079.8012

          OUT:                                     OUT:
          ----                                     ----
         STORAGE(SS) =          45.9423           STORAGE(SS) =          18.0574
         STORAGE(SY) =       83202.1062           STORAGE(SY) =       25065.9725
    WELLS NEAR RIVER =      210000.0000      WELLS NEAR RIVER =       70000.0000
               RIVER =      158835.3842                 RIVER =       40440.5022
           GHB LAKES =      443251.6707             GHB LAKES =      110900.5230
            RECHARGE =           0.0000              RECHARGE =           0.0000
      CONSTANT HEADS =       54830.7605        CONSTANT HEADS =       13654.7461

           TOTAL OUT =      950165.8639             TOTAL OUT =      260079.8012

            IN - OUT =      -6.2006E-03              IN - OUT =      -1.0696E-05

 PERCENT DISCREPANCY =          -0.00     PERCENT DISCREPANCY =          -0.00






         TIME SUMMARY AT END OF TIME STEP    3 IN STRESS PERIOD    2
                    SECONDS     MINUTES      HOURS       DAYS        YEARS
                    -----------------------------------------------------------
   TIME STEP LENGTH  86400.      1440.0      24.000     1.00000     2.73785E-03
 STRESS PERIOD TIME 2.59200E+05  4320.0      72.000      3.0000     8.21355E-03
         TOTAL TIME 3.45600E+05  5760.0      96.000      4.0000     1.09514E-02

 OUTPUT CONTROL FOR STRESS PERIOD    2   TIME STEP    4
    PRINT BUDGET
    PRINT HEAD
    PRINT HEAD FOR ALL LAYERS
    SAVE BUDGET
    SAVE HEAD
    SAVE HEAD FOR ALL LAYERS
 UBDSV1 SAVING      STORAGE(SS) ON UNIT   1017 AT TIME STEP      4, STRESS PERIOD      2
 UBDSV1 SAVING      STORAGE(SY) ON UNIT   1017 AT TIME STEP      4, STRESS PERIOD      2
 UBDSV1 SAVING FLOW RIGHT FACE  ON UNIT   1017 AT TIME STEP      4, STRESS PERIOD      2
 UBDSV1 SAVING FLOW FRONT FACE  ON UNIT   1017 AT TIME STEP      4, STRESS PERIOD      2
 UBDSV1 SAVING FLOW LOWER FACE  ON UNIT   1017 AT TIME STEP      4, STRESS PERIOD      2
 UBDSV4 SAVING WELLS NEAR RIVER ON UNIT   1017 AT TIME STEP      4, STRESS PERIOD      2

 WELLS NEAR RIVER   PERIOD  2   STEP  4
 BOUNDARY      1   LAYER   2   ROW     3   COL     4   RATE    -35000.0    
 BOUNDARY      2   LAYER   2   ROW     8   COL     4   RATE    -35000.0    
 UBDSV4 SAVING RIVER            ON UNIT   1017 AT TIME STEP      4, STRESS PERIOD      2

 RIVER              PERIOD  2   STEP  4
 BOUNDARY      1   LAYER   2   ROW     1   COL    15   RATE    -4068.33    
 BOUNDARY      2   LAYER   2   ROW     2   COL    15   RATE    -4068.45      RIV2
 BOUNDARY      3   LAYER   2   ROW     3   COL    15   RATE    -4068.68      RIV3
 BOUNDARY      4   LAYER   2   ROW     4   COL    15   RATE    -4069.01    
 BOUNDARY      5   LAYER   2   ROW     5   COL    15   RATE    -4069.40    
 BOUNDARY      6   LAYER   2   ROW     6   COL    15   RATE    -4069.82    
 BOUNDARY      7   LAYER   2   ROW     7   COL    15   RATE    -4070.23      RIVX
 BOUNDARY      8   LAYER   2   ROW     8   COL    15   RATE    -4070.59      RIVX
 BOUNDARY      9   LAYER   2   ROW     9   COL    15   RATE    -4070.85      RIVX
 BOUNDARY     10   LAYER   2   ROW    10   COL    15   RATE    -4070.99    

 GHB LAKES          PERIOD  2   STEP  4
 BOUNDARY      1   LAYER   1   ROW     3   COL     1   RATE    -15020.0    
 BOUNDARY      2   LAYER   1   ROW     7   COL     1   RATE     81518.3      GHB2_UPPER
 BOUNDARY      3   LAYER   1   ROW     7   COL     1   RATE    -95886.3      GHB2_LOWER
 UBDSV4 SAVING RECHARGE         ON UNIT   1017 AT TIME STEP      4, STRESS PERIOD      2

 RECHARGE           PERIOD  2   STEP  4
 BOUNDARY      2   LAYER   1   ROW     1   COL     2   RATE     750.000    
 BOUNDARY      3   LAYER   1   ROW     1   COL     3   RATE     750.000    
 BOUNDARY      4   LAYER   1   ROW     1   COL     4   RATE     750.000    
 BOUNDARY      5   LAYER   1   ROW     1   COL     5   RATE     750.000    
 BOUNDARY      6   LAYER   1   ROW     1   COL     6   RATE     750.000    
 BOUNDARY      7   LAYER   1   ROW     1   COL     7   RATE     750.000    
 BOUNDARY      8   LAYER   1   ROW     1   COL     8   RATE     750.000    
 BOUNDARY      9   LAYER   1   ROW     1   COL     9   RATE     750.000    
 BOUNDARY     10   LAYER   1   ROW     1   COL    10   RATE     750.000    
 BOUNDARY     11   LAYER   1   ROW     1   COL    11   RATE     750.000    
 BOUNDARY     12   LAYER   1   ROW     1   COL    12   RATE     750.000    
 BOUNDARY     13   LAYER   1   ROW     1   COL    13   RATE     750.000    
 BOUNDARY     14   LAYER   1   ROW     1   COL    14   RATE     750.000    
 BOUNDARY     15   LAYER   2   ROW     1   COL    15   RATE     750.000    
 BOUNDARY     16   LAYER   1   ROW     2   COL     1   RATE     750.000    
 BOUNDARY     17   LAYER   1   ROW     2   COL     2   RATE     750.000    
 BOUNDARY     18   LAYER   1   ROW     2   COL     3   RATE     750.000    
 BOUNDARY     19   LAYER   1   ROW     2   COL     4   RATE     750.000    
 BOUNDARY     20   LAYER   1   ROW     2   COL     5   RATE     750.000    
 BOUNDARY     21   LAYER   1   ROW     2   COL     6   RATE     750.000    
 BOUNDARY     22   LAYER   1   ROW     2   COL     7   RATE     750.000    
 BOUNDARY     23   LAYER   1   ROW     2   COL     8   RATE     750.000    
 BOUNDARY     24   LAYER   1   ROW     2   COL     9   RATE     750.000    
 BOUNDARY     25   LAYER   1   ROW     2   COL    10   RATE     750.000    
 BOUNDARY     26   LAYER   1   ROW     2   COL    11   RATE     750.000    
 BOUNDARY     27   LAYER   1   ROW     2   COL    12   RATE     750.000    
 BOUNDARY     28   LAYER   1   ROW     2   COL    13   RATE     750.000    
 BOUNDARY     29   LAYER   1   ROW     2   COL    14   RATE     750.000    
 BOUNDARY     30   LAYER   2   ROW     2   COL    15   RATE     750.000    
 BOUNDARY     31   LAYER   1   ROW     3   COL     1   RATE     750.000    
 BOUNDARY     32   LAYER   1   ROW     3   COL     2   RATE     750.000    
 BOUNDARY     33   LAYER   1   ROW     3   COL     3   RATE     750.000    
 BOUNDARY     34   LAYER   1   ROW     3   COL     4   RATE     750.000    
 BOUNDARY     35   LAYER   1   ROW     3   COL     5   RATE     750.000    
 BOUNDARY     36   LAYER   1   ROW     3   COL     6   RATE     750.000    
 BOUNDARY     37   LAYER   1   ROW     3   COL     7   RATE     750.000    
 BOUNDARY     38   LAYER   1   ROW     3   COL     8   RATE     750.000    
 BOUNDARY     39   LAYER   1   ROW     3   COL     9   RATE     750.000    
 BOUNDARY     40   LAYER   1   ROW     3   COL    10   RATE     750.000    
 BOUNDARY     41   LAYER   1   ROW     3   COL    11   RATE     750.000    
 BOUNDARY     42   LAYER   1   ROW     3   COL    12   RATE     750.000    
 BOUNDARY     43   LAYER   1   ROW     3   COL    13   RATE     750.000    
 BOUNDARY     44   LAYER   1   ROW     3   COL    14   RATE     750.000    
 BOUNDARY     45   LAYER   2   ROW     3   COL    15   RATE     750.000    
 BOUNDARY     47   LAYER   1   ROW     4   COL     2   RATE     750.000    
 BOUNDARY     48   LAYER   1   ROW     4   COL     3   RATE     750.000    
 BOUNDARY     49   LAYER   1   ROW     4   COL     4   RATE     750.000    
 BOUNDARY     50   LAYER   1   ROW     4   COL     5   RATE     750.000    
 BOUNDARY     51   LAYER   1   ROW     4   COL     6   RATE     750.000    
 BOUNDARY     52   LAYER   1   ROW     4   COL     7   RATE     750.000    
 BOUNDARY     53   LAYER   1   ROW     4   COL     8   RATE     750.000    
 BOUNDARY     54   LAYER   1   ROW     4   COL     9   RATE     750.000    
 BOUNDARY     55   LAYER   1   ROW     4   COL    10   RATE     750.000    
 BOUNDARY     56   LAYER   1   ROW     4   COL    11   RATE     750.000    
 BOUNDARY     57   LAYER   1   ROW     4   COL    12   RATE     750.000    
 BOUNDARY     58   LAYER   1   ROW     4   COL    13   RATE     750.000    
 BOUNDARY     59   LAYER   1   ROW     4   COL    14   RATE     750.000    
 BOUNDARY     60   LAYER   2   ROW     4   COL    15   RATE     750.000    
 BOUNDARY     62   LAYER   1   ROW     5   COL     2   RATE     750.000    
 BOUNDARY     63   LAYER   1   ROW     5   COL     3   RATE     750.000    
 BOUNDARY     64   LAYER   1   ROW     5   COL     4   RATE     750.000    
 BOUNDARY     65   LAYER   1   ROW     5   COL     5   RATE     750.000    
 BOUNDARY     66   LAYER   1   ROW     5   COL     6   RATE     750.000    
 BOUNDARY     67   LAYER   1   ROW     5   COL     7   RATE     750.000    
 BOUNDARY     68   LAYER   1   ROW     5   COL     8   RATE     750.000    
 BOUNDARY     69   LAYER   1   ROW     5   COL     9   RATE     750.000    
 BOUNDARY     70   LAYER   1   ROW     5   COL    10   RATE     750.000    
 BOUNDARY     71   LAYER   1   ROW     5   COL    11   RATE     750.000    
 BOUNDARY     72   LAYER   1   ROW     5   COL    12   RATE     750.000    
 BOUNDARY     73   LAYER   1   ROW     5   COL    13   RATE     750.000    
 BOUNDARY     74   LAYER   1   ROW     5   COL    14   RATE     750.000    
 BOUNDARY     75   LAYER   2   ROW     5   COL    15   RATE     750.000    
 BOUNDARY     77   LAYER   1   ROW     6   COL     2   RATE     750.000    
 BOUNDARY     78   LAYER   1   ROW     6   COL     3   RATE     750.000    
 BOUNDARY     79   LAYER   1   ROW     6   COL     4   RATE     750.000    
 BOUNDARY     80   LAYER   1   ROW     6   COL     5   RATE     750.000    
 BOUNDARY     81   LAYER   1   ROW     6   COL     6   RATE     750.000    
 BOUNDARY     82   LAYER   1   ROW     6   COL     7   RATE     750.000    
 BOUNDARY     83   LAYER   1   ROW     6   COL     8   RATE     750.000    
 BOUNDARY     84   LAYER   1   ROW     6   COL     9   RATE     750.000    
 BOUNDARY     85   LAYER   1   ROW     6   COL    10   RATE     750.000    
 BOUNDARY     86   LAYER   1   ROW     6   COL    11   RATE     750.000    
 BOUNDARY     87   LAYER   1   ROW     6   COL    12   RATE     750.000    
 BOUNDARY     88   LAYER   1   ROW     6   COL    13   RATE     750.000    
 BOUNDARY     89   LAYER   1   ROW     6   COL    14   RATE     750.000    
 BOUNDARY     90   LAYER   2   ROW     6   COL    15   RATE     750.000    
 BOUNDARY     91   LAYER   1   ROW     7   COL     1   RATE     750.000    
 BOUNDARY     92   LAYER   1   ROW     7   COL     2   RATE     750.000    
 BOUNDARY     93   LAYER   1   ROW     7   COL     3   RATE     750.000    
 BOUNDARY     94   LAYER   1   ROW     7   COL     4   RATE     750.000    
 BOUNDARY     95   LAYER   1   ROW     7   COL     5   RATE     750.000    
 BOUNDARY     96   LAYER   1   ROW     7   COL     6   RATE     750.000    
 BOUNDARY     97   LAYER   1   ROW     7   COL     7   RATE     750.000    
 BOUNDARY     98   LAYER   1   ROW     7   COL     8   RATE     750.000    
 BOUNDARY     99   LAYER   1   ROW     7   COL     9   RATE     750.000    
 BOUNDARY    100   LAYER   1   ROW     7   COL    10   RATE     750.000    
 BOUNDARY    101   LAYER   1   ROW     7   COL    11   RATE     750.000    
 BOUNDARY    102   LAYER   1   ROW     7   COL    12   RATE     750.000    
 BOUNDARY    103   LAYER   1   ROW     7   COL    13   RATE     750.000    
 BOUNDARY    104   LAYER   1   ROW     7   COL    14   RATE     750.000    
 BOUNDARY    105   LAYER   2   ROW     7   COL    15   RATE     750.000    
 BOUNDARY    106   LAYER   1   ROW     8   COL     1   RATE     750.000    
 BOUNDARY    107   LAYER   1   ROW     8   COL     2   RATE     750.000    
 BOUNDARY    108   LAYER   1   ROW     8   COL     3   RATE     750.000    
 BOUNDARY    109   LAYER   1   ROW     8   COL     4   RATE     750.000    
 BOUNDARY    110   LAYER   1   ROW     8   COL     5   RATE     750.000    
 BOUNDARY    111   LAYER   1   ROW     8   COL     6   RATE     750.000    
 BOUNDARY    112   LAYER   1   ROW     8   COL     7   RATE     750.000    
 BOUNDARY    113   LAYER   1   ROW     8   COL     8   RATE     750.000    
 BOUNDARY    114   LAYER   1   ROW     8   COL     9   RATE     750.000    
 BOUNDARY    115   LAYER   1   ROW     8   COL    10   RATE     750.000    
 BOUNDARY    116   LAYER   1   ROW     8   COL    11   RATE     750.000    
 BOUNDARY    117   LAYER   1   ROW     8   COL    12   RATE     750.000    
 BOUNDARY    118   LAYER   1   ROW     8   COL    13   RATE     750.000    
 BOUNDARY    119   LAYER   1   ROW     8   COL    14   RATE     750.000    
 BOUNDARY    120   LAYER   2   ROW     8   COL    15   RATE     750.000    
 BOUNDARY    121   LAYER   1   ROW     9   COL     1   RATE     750.000    
 BOUNDARY    122   LAYER   1   ROW     9   COL     2   RATE     750.000    
 BOUNDARY    123   LAYER   1   ROW     9   COL     3   RATE     750.000    
 BOUNDARY    124   LAYER   1   ROW     9   COL     4   RATE     750.000    
 BOUNDARY    125   LAYER   1   ROW     9   COL     5   RATE     750.000    
 BOUNDARY    126   LAYER   1   ROW     9   COL     6   RATE     750.000    
 BOUNDARY    127   LAYER   1   ROW     9   COL     7   RATE     750.000    
 BOUNDARY    128   LAYER   1   ROW     9   COL     8   RATE     750.000    
 BOUNDARY    129   LAYER   1   ROW     9   COL     9   RATE     750.000    
 BOUNDARY    130   LAYER   1   ROW     9   COL    10   RATE     750.000    
 BOUNDARY    131   LAYER   1   ROW     9   COL    11   RATE     750.000    
 BOUNDARY    132   LAYER   1   ROW     9   COL    12   RATE     750.000    
 BOUNDARY    133   LAYER   1   ROW     9   COL    13   RATE     750.000    
 BOUNDARY    134   LAYER   1   ROW     9   COL    14   RATE     750.000    
 BOUNDARY    135   LAYER   2   ROW     9   COL    15   RATE     750.000    
 BOUNDARY    137   LAYER   1   ROW    10   COL     2   RATE     750.000    
 BOUNDARY    138   LAYER   1   ROW    10   COL     3   RATE     750.000    
 BOUNDARY    139   LAYER   1   ROW    10   COL     4   RATE     750.000    
 BOUNDARY    140   LAYER   1   ROW    10   COL     5   RATE     750.000    
 BOUNDARY    141   LAYER   1   ROW    10   COL     6   RATE     750.000    
 BOUNDARY    142   LAYER   1   ROW    10   COL     7   RATE     750.000    
 BOUNDARY    143   LAYER   1   ROW    10   COL     8   RATE     750.000    
 BOUNDARY    144   LAYER   1   ROW    10   COL     9   RATE     750.000    
 BOUNDARY    145   LAYER   1   ROW    10   COL    10   RATE     750.000    
 BOUNDARY    146   LAYER   1   ROW    10   COL    11   RATE     750.000    
 BOUNDARY    147   LAYER   1   ROW    10   COL    12   RATE     750.000    
 BOUNDARY    148   LAYER   1   ROW    10   COL    13   RATE     750.000    
 BOUNDARY    149   LAYER   1   ROW    10   COL    14   RATE     750.000    
 BOUNDARY    150   LAYER   2   ROW    10   COL    15   RATE     750.000    
 UBDSV4 SAVING CONSTANT HEADS   ON UNIT   1017 AT TIME STEP      4, STRESS PERIOD      2

 CONSTANT HEADS     PERIOD  2   STEP  4
 BOUNDARY      1   LAYER   1   ROW     1   COL     1   RATE    -1732.01      CHD-1
 BOUNDARY      2   LAYER   1   ROW     4   COL     1   RATE     2348.01    
 BOUNDARY      3   LAYER   1   ROW     5   COL     1   RATE    -2437.65      CHD_GP
 BOUNDARY      4   LAYER   1   ROW     6   COL     1   RATE     1550.88      CHD_GP
 BOUNDARY      5   LAYER   1   ROW    10   COL     1   RATE    -4308.69      CHD-10
1
  HEAD             IN LAYER   1 AT END OF TIME STEP   4 IN STRESS PERIOD    2
  ---------------------------------------------------------------------------

           1       2       3       4       5       6       7       8       9      10      11      12      13      14      15
 ...........................................................................................................................
   1   120.00  127.79  134.49  139.80  143.78  146.48  147.99  148.36  147.64  145.87  143.09  139.48  135.46  132.17  777.77
   2   117.63  126.47  133.99  139.60  143.72  146.47  148.00  148.37  147.65  145.88  143.10  139.48  135.47  132.17  777.77
   3   101.00  123.72  133.39  139.26  143.67  146.49  148.02  148.40  147.67  145.89  143.11  139.49  135.48  132.18  777.77
   4   120.00  127.10  134.22  139.73  143.83  146.57  148.07  148.43  147.70  145.92  143.13  139.51  135.49  132.19  777.77
   5   120.00  127.95  134.68  140.02  143.99  146.66  148.14  148.48  147.74  145.95  143.15  139.53  135.50  132.21  777.77
   6   120.00  127.57  134.67  140.13  144.11  146.76  148.22  148.54  147.79  145.98  143.18  139.55  135.52  132.22  777.77
   7   104.18  125.16  134.39  140.17  144.22  146.87  148.30  148.60  147.83  146.01  143.21  139.57  135.54  132.24  777.77
   8   120.68  128.46  135.31  140.34  144.38  146.99  148.38  148.66  147.87  146.04  143.23  139.59  135.55  132.25  777.77
   9   124.43  130.19  136.11  140.93  144.62  147.11  148.45  148.71  147.90  146.06  143.24  139.60  135.57  132.26  777.77
  10   120.00  129.67  136.24  141.13  144.74  147.17  148.49  148.73  147.92  146.08  143.25  139.61  135.57  132.27  777.77
1
  HEAD             IN LAYER   2 AT END OF TIME STEP   4 IN STRESS PERIOD    2
  ---------------------------------------------------------------------------

           1       2       3       4       5       6       7       8       9      10      11      12      13      14      15
 ...........................................................................................................................
   1   123.53  125.57  126.80  127.59  134.92  141.01  144.19  144.91  143.60  140.14  133.78  122.75  103.36   67.94    0.41
   2   121.63  122.68  119.43  110.38  127.79  138.78  143.59  144.77  143.57  140.14  133.78  122.75  103.37   67.94    0.41
   3   118.71  119.01  105.90   47.33  114.49  135.92  142.99  144.66  143.57  140.15  133.79  122.76  103.37   67.94    0.41
   4   122.10  122.93  119.59  110.50  127.90  138.88  143.67  144.84  143.62  140.18  133.81  122.78  103.38   67.95    0.41
   5   123.70  125.77  127.02  127.81  135.12  141.20  144.35  145.04  143.70  140.22  133.84  122.80  103.40   67.96    0.41
   6   123.46  125.74  127.11  127.90  135.22  141.29  144.42  145.10  143.74  140.25  133.86  122.81  103.41   67.97    0.41
   7   121.02  123.09  120.00  110.74  128.18  139.14  143.89  145.00  143.75  140.27  133.88  122.83  103.43   67.98    0.41
   8   122.91  121.36  107.12   47.36  114.91  136.34  143.33  144.92  143.76  140.30  133.90  122.85  103.44   67.98    0.41
   9   125.22  125.28  121.13  111.37  128.55  139.38  144.04  145.11  143.82  140.33  133.92  122.86  103.45   67.99    0.41
  10   125.84  127.74  128.53  128.84  135.84  141.70  144.70  145.29  143.88  140.35  133.93  122.87  103.45   67.99    0.41

 HEAD WILL BE SAVED ON UNIT 1018 AT END OF TIME STEP    4, STRESS PERIOD    2
1
  VOLUME BUDGET FOR ENTIRE MODEL AT END OF TIME STEP    4, STRESS PERIOD   2
  ------------------------------------------------------------------------------

     CUMULATIVE VOLUME      L**3       RATES FOR THIS TIME STEP      L**3/T
     ------------------                 ------------------------

           IN:                                      IN:
           ---                                      ---
         STORAGE(SS) =       73249.6469           STORAGE(SS) =       11156.9009
         STORAGE(SY) =      175057.1857           STORAGE(SY) =       48085.1557
    WELLS NEAR RIVER =           0.0000      WELLS NEAR RIVER =           0.0000
               RIVER =           0.0000                 RIVER =           0.0000
           GHB LAKES =      407825.9228             GHB LAKES =       81518.3228
            RECHARGE =      507500.0000              RECHARGE =      108750.0000
      CONSTANT HEADS =       45047.0679        CONSTANT HEADS =        9003.5862

            TOTAL IN =     1208679.8233              TOTAL IN =      258513.9656

          OUT:                                     OUT:
          ----                                     ----
         STORAGE(SS) =          63.2322           STORAGE(SS) =          17.2899
         STORAGE(SY) =      106513.0185           STORAGE(SY) =       23310.9124
    WELLS NEAR RIVER =      280000.0000      WELLS NEAR RIVER =       70000.0000
               RIVER =      199531.7452                 RIVER =       40696.3610
           GHB LAKES =      554158.0337             GHB LAKES =      110906.3630
            RECHARGE =           0.0000              RECHARGE =           0.0000
      CONSTANT HEADS =       68413.7999        CONSTANT HEADS =       13583.0394

           TOTAL OUT =     1208679.8295             TOTAL OUT =      258513.9657

            IN - OUT =      -6.2105E-03              IN - OUT =      -9.8939E-06

 PERCENT DISCREPANCY =          -0.00     PERCENT DISCREPANCY =          -0.00






         TIME SUMMARY AT END OF TIME STEP    4 IN STRESS PERIOD    2
                    SECONDS     MINUTES      HOURS       DAYS        YEARS
                    -----------------------------------------------------------
   TIME STEP LENGTH  86400.      1440.0      24.000     1.00000     2.73785E-03
 STRESS PERIOD TIME 3.45600E+05  5760.0      96.000      4.0000     1.09514E-02
         TOTAL TIME 4.32000E+05  7200.0      120.00      5.0000     1.36893E-02

 OUTPUT CONTROL FOR STRESS PERIOD    2   TIME STEP    5
    PRINT BUDGET
    PRINT HEAD
    PRINT HEAD FOR ALL LAYERS
    SAVE BUDGET
    SAVE HEAD
    SAVE HEAD FOR ALL LAYERS
 UBDSV1 SAVING      STORAGE(SS) ON UNIT   1017 AT TIME STEP      5, STRESS PERIOD      2
 UBDSV1 SAVING      STORAGE(SY) ON UNIT   1017 AT TIME STEP      5, STRESS PERIOD      2
 UBDSV1 SAVING FLOW RIGHT FACE  ON UNIT   1017 AT TIME STEP      5, STRESS PERIOD      2
 UBDSV1 SAVING FLOW FRONT FACE  ON UNIT   1017 AT TIME STEP      5, STRESS PERIOD      2
 UBDSV1 SAVING FLOW LOWER FACE  ON UNIT   1017 AT TIME STEP      5, STRESS PERIOD      2
 UBDSV4 SAVING WELLS NEAR RIVER ON UNIT   1017 AT TIME STEP      5, STRESS PERIOD      2

 WELLS NEAR RIVER   PERIOD  2   STEP  5
 BOUNDARY      1   LAYER   2   ROW     3   COL     4   RATE    -35000.0    
 BOUNDARY      2   LAYER   2   ROW     8   COL     4   RATE    -35000.0    
 UBDSV4 SAVING RIVER            ON UNIT   1017 AT TIME STEP      5, STRESS PERIOD      2

 RIVER              PERIOD  2   STEP  5
 BOUNDARY      1   LAYER   2   ROW     1   COL    15   RATE    -4086.14    
 BOUNDARY      2   LAYER   2   ROW     2   COL    15   RATE    -4086.26      RIV2
 BOUNDARY      3   LAYER   2   ROW     3   COL    15   RATE    -4086.50      RIV3
 BOUNDARY      4   LAYER   2   ROW     4   COL    15   RATE    -4086.83    
 BOUNDARY      5   LAYER   2   ROW     5   COL    15   RATE    -4087.22    
 BOUNDARY      6   LAYER   2   ROW     6   COL    15   RATE    -4087.64    
 BOUNDARY      7   LAYER   2   ROW     7   COL    15   RATE    -4088.05      RIVX
 BOUNDARY      8   LAYER   2   ROW     8   COL    15   RATE    -4088.40      RIVX
 BOUNDARY      9   LAYER   2   ROW     9   COL    15   RATE    -4088.66      RIVX
 BOUNDARY     10   LAYER   2   ROW    10   COL    15   RATE    -4088.80    

 GHB LAKES          PERIOD  2   STEP  5
 BOUNDARY      1   LAYER   1   ROW     3   COL     1   RATE    -15015.0    
 BOUNDARY      2   LAYER   1   ROW     7   COL     1   RATE     81522.7      GHB2_UPPER
 BOUNDARY      3   LAYER   1   ROW     7   COL     1   RATE    -95884.8      GHB2_LOWER
 UBDSV4 SAVING RECHARGE         ON UNIT   1017 AT TIME STEP      5, STRESS PERIOD      2

 RECHARGE           PERIOD  2   STEP  5
 BOUNDARY      2   LAYER   1   ROW     1   COL     2   RATE     750.000    
 BOUNDARY      3   LAYER   1   ROW     1   COL     3   RATE     750.000    
 BOUNDARY      4   LAYER   1   ROW     1   COL     4   RATE     750.000    
 BOUNDARY      5   LAYER   1   ROW     1   COL     5   RATE     750.000    
 BOUNDARY      6   LAYER   1   ROW     1   COL     6   RATE     750.000    
 BOUNDARY      7   LAYER   1   ROW     1   COL     7   RATE     750.000    
 BOUNDARY      8   LAYER   1   ROW     1   COL     8   RATE     750.000    
 BOUNDARY      9   LAYER   1   ROW     1   COL     9   RATE     750.000    
 BOUNDARY     10   LAYER   1   ROW     1   COL    10   RATE     750.000    
 BOUNDARY     11   LAYER   1   ROW     1   COL    11   RATE     750.000    
 BOUNDARY     12   LAYER   1   ROW     1   COL    12   RATE     750.000    
 BOUNDARY     13   LAYER   1   ROW     1   COL    13   RATE     750.000    
 BOUNDARY     14   LAYER   1   ROW     1   COL    14   RATE     750.000    
 BOUNDARY     15   LAYER   2   ROW     1   COL    15   RATE     750.000    
 BOUNDARY     16   LAYER   1   ROW     2   COL     1   RATE     750.000    
 BOUNDARY     17   LAYER   1   ROW     2   COL     2   RATE     750.000    
 BOUNDARY     18   LAYER   1   ROW     2   COL     3   RATE     750.000    
 BOUNDARY     19   LAYER   1   ROW     2   COL     4   RATE     750.000    
 BOUNDARY     20   LAYER   1   ROW     2   COL     5   RATE     750.000    
 BOUNDARY     21   LAYER   1   ROW     2   COL     6   RATE     750.000    
 BOUNDARY     22   LAYER   1   ROW     2   COL     7   RATE     750.000    
 BOUNDARY     23   LAYER   1   ROW     2   COL     8   RATE     750.000    
 BOUNDARY     24   LAYER   1   ROW     2   COL     9   RATE     750.000    
 BOUNDARY     25   LAYER   1   ROW     2   COL    10   RATE     750.000    
 BOUNDARY     26   LAYER   1   ROW     2   COL    11   RATE     750.000    
 BOUNDARY     27   LAYER   1   ROW     2   COL    12   RATE     750.000    
 BOUNDARY     28   LAYER   1   ROW     2   COL    13   RATE     750.000    
 BOUNDARY     29   LAYER   1   ROW     2   COL    14   RATE     750.000    
 BOUNDARY     30   LAYER   2   ROW     2   COL    15   RATE     750.000    
 BOUNDARY     31   LAYER   1   ROW     3   COL     1   RATE     750.000    
 BOUNDARY     32   LAYER   1   ROW     3   COL     2   RATE     750.000    
 BOUNDARY     33   LAYER   1   ROW     3   COL     3   RATE     750.000    
 BOUNDARY     34   LAYER   1   ROW     3   COL     4   RATE     750.000    
 BOUNDARY     35   LAYER   1   ROW     3   COL     5   RATE     750.000    
 BOUNDARY     36   LAYER   1   ROW     3   COL     6   RATE     750.000    
 BOUNDARY     37   LAYER   1   ROW     3   COL     7   RATE     750.000    
 BOUNDARY     38   LAYER   1   ROW     3   COL     8   RATE     750.000    
 BOUNDARY     39   LAYER   1   ROW     3   COL     9   RATE     750.000    
 BOUNDARY     40   LAYER   1   ROW     3   COL    10   RATE     750.000    
 BOUNDARY     41   LAYER   1   ROW     3   COL    11   RATE     750.000    
 BOUNDARY     42   LAYER   1   ROW     3   COL    12   RATE     750.000    
 BOUNDARY     43   LAYER   1   ROW     3   COL    13   RATE     750.000    
 BOUNDARY     44   LAYER   1   ROW     3   COL    14   RATE     750.000    
 BOUNDARY     45   LAYER   2   ROW     3   COL    15   RATE     750.000    
 BOUNDARY     47   LAYER   1   ROW     4   COL     2   RATE     750.000    
 BOUNDARY     48   LAYER   1   ROW     4   COL     3   RATE     750.000    
 BOUNDARY     49   LAYER   1   ROW     4   COL     4   RATE     750.000    
 BOUNDARY     50   LAYER   1   ROW     4   COL     5   RATE     750.000    
 BOUNDARY     51   LAYER   1   ROW     4   COL     6   RATE     750.000    
 BOUNDARY     52   LAYER   1   ROW     4   COL     7   RATE     750.000    
 BOUNDARY     53   LAYER   1   ROW     4   COL     8   RATE     750.000    
 BOUNDARY     54   LAYER   1   ROW     4   COL     9   RATE     750.000    
 BOUNDARY     55   LAYER   1   ROW     4   COL    10   RATE     750.000    
 BOUNDARY     56   LAYER   1   ROW     4   COL    11   RATE     750.000    
 BOUNDARY     57   LAYER   1   ROW     4   COL    12   RATE     750.000    
 BOUNDARY     58   LAYER   1   ROW     4   COL    13   RATE     750.000    
 BOUNDARY     59   LAYER   1   ROW     4   COL    14   RATE     750.000    
 BOUNDARY     60   LAYER   2   ROW     4   COL    15   RATE     750.000    
 BOUNDARY     62   LAYER   1   ROW     5   COL     2   RATE     750.000    
 BOUNDARY     63   LAYER   1   ROW     5   COL     3   RATE     750.000    
 BOUNDARY     64   LAYER   1   ROW     5   COL     4   RATE     750.000    
 BOUNDARY     65   LAYER   1   ROW     5   COL     5   RATE     750.000    
 BOUNDARY     66   LAYER   1   ROW     5   COL     6   RATE     750.000    
 BOUNDARY     67   LAYER   1   ROW     5   COL     7   RATE     750.000    
 BOUNDARY     68   LAYER   1   ROW     5   COL     8   RATE     750.000    
 BOUNDARY     69   LAYER   1   ROW     5   COL     9   RATE     750.000    
 BOUNDARY     70   LAYER   1   ROW     5   COL    10   RATE     750.000    
 BOUNDARY     71   LAYER   1   ROW     5   COL    11   RATE     750.000    
 BOUNDARY     72   LAYER   1   ROW     5   COL    12   RATE     750.000    
 BOUNDARY     73   LAYER   1   ROW     5   COL    13   RATE     750.000    
 BOUNDARY     74   LAYER   1   ROW     5   COL    14   RATE     750.000    
 BOUNDARY     75   LAYER   2   ROW     5   COL    15   RATE     750.000    
 BOUNDARY     77   LAYER   1   ROW     6   COL     2   RATE     750.000    
 BOUNDARY     78   LAYER   1   ROW     6   COL     3   RATE     750.000    
 BOUNDARY     79   LAYER   1   ROW     6   COL     4   RATE     750.000    
 BOUNDARY     80   LAYER   1   ROW     6   COL     5   RATE     750.000    
 BOUNDARY     81   LAYER   1   ROW     6   COL     6   RATE     750.000    
 BOUNDARY     82   LAYER   1   ROW     6   COL     7   RATE     750.000    
 BOUNDARY     83   LAYER   1   ROW     6   COL     8   RATE     750.000    
 BOUNDARY     84   LAYER   1   ROW     6   COL     9   RATE     750.000    
 BOUNDARY     85   LAYER   1   ROW     6   COL    10   RATE     750.000    
 BOUNDARY     86   LAYER   1   ROW     6   COL    11   RATE     750.000    
 BOUNDARY     87   LAYER   1   ROW     6   COL    12   RATE     750.000    
 BOUNDARY     88   LAYER   1   ROW     6   COL    13   RATE     750.000    
 BOUNDARY     89   LAYER   1   ROW     6   COL    14   RATE     750.000    
 BOUNDARY     90   LAYER   2   ROW     6   COL    15   RATE     750.000    
 BOUNDARY     91   LAYER   1   ROW     7   COL     1   RATE     750.000    
 BOUNDARY     92   LAYER   1   ROW     7   COL     2   RATE     750.000    
 BOUNDARY     93   LAYER   1   ROW     7   COL     3   RATE     750.000    
 BOUNDARY     94   LAYER   1   ROW     7   COL     4   RATE     750.000    
 BOUNDARY     95   LAYER   1   ROW     7   COL     5   RATE     750.000    
 BOUNDARY     96   LAYER   1   ROW     7   COL     6   RATE     750.000    
 BOUNDARY     97   LAYER   1   ROW     7   COL     7   RATE     750.000    
 BOUNDARY     98   LAYER   1   ROW     7   COL     8   RATE     750.000    
 BOUNDARY     99   LAYER   1   ROW     7   COL     9   RATE     750.000    
 BOUNDARY    100   LAYER   1   ROW     7   COL    10   RATE     750.000    
 BOUNDARY    101   LAYER   1   ROW     7   COL    11   RATE     750.000    
 BOUNDARY    102   LAYER   1   ROW     7   COL    12   RATE     750.000    
 BOUNDARY    103   LAYER   1   ROW     7   COL    13   RATE     750.000    
 BOUNDARY    104   LAYER   1   ROW     7   COL    14   RATE     750.000    
 BOUNDARY    105   LAYER   2   ROW     7   COL    15   RATE     750.000    
 BOUNDARY    106   LAYER   1   ROW     8   COL     1   RATE     750.000    
 BOUNDARY    107   LAYER   1   ROW     8   COL     2   RATE     750.000    
 BOUNDARY    108   LAYER   1   ROW     8   COL     3   RATE     750.000    
 BOUNDARY    109   LAYER   1   ROW     8   COL     4   RATE     750.000    
 BOUNDARY    110   LAYER   1   ROW     8   COL     5   RATE     750.000    
 BOUNDARY    111   LAYER   1   ROW     8   COL     6   RATE     750.000    
 BOUNDARY    112   LAYER   1   ROW     8   COL     7   RATE     750.000    
 BOUNDARY    113   LAYER   1   ROW     8   COL     8   RATE     750.000    
 BOUNDARY    114   LAYER   1   ROW     8   COL     9   RATE     750.000    
 BOUNDARY    115   LAYER   1   ROW     8   COL    10   RATE     750.000    
 BOUNDARY    116   LAYER   1   ROW     8   COL    11   RATE     750.000    
 BOUNDARY    117   LAYER   1   ROW     8   COL    12   RATE     750.000    
 BOUNDARY    118   LAYER   1   ROW     8   COL    13   RATE     750.000    
 BOUNDARY    119   LAYER   1   ROW     8   COL    14   RATE     750.000    
 BOUNDARY    120   LAYER   2   ROW     8   COL    15   RATE     750.000    
 BOUNDARY    121   LAYER   1   ROW     9   COL     1   RATE     750.000    
 BOUNDARY    122   LAYER   1   ROW     9   COL     2   RATE     750.000    
 BOUNDARY    123   LAYER   1   ROW     9   COL     3   RATE     750.000    
 BOUNDARY    124   LAYER   1   ROW     9   COL     4   RATE     750.000    
 BOUNDARY    125   LAYER   1   ROW     9   COL     5   RATE     750.000    
 BOUNDARY    126   LAYER   1   ROW     9   COL     6   RATE     750.000    
 BOUNDARY    127   LAYER   1   ROW     9   COL     7   RATE     750.000    
 BOUNDARY    128   LAYER   1   ROW     9   COL     8   RATE     750.000    
 BOUNDARY    129   LAYER   1   ROW     9   COL     9   RATE     750.000    
 BOUNDARY    130   LAYER   1   ROW     9   COL    10   RATE     750.000    
 BOUNDARY    131   LAYER   1   ROW     9   COL    11   RATE     750.000    
 BOUNDARY    132   LAYER   1   ROW     9   COL    12   RATE     750.000    
 BOUNDARY    133   LAYER   1   ROW     9   COL    13   RATE     750.000    
 BOUNDARY    134   LAYER   1   ROW     9   COL    14   RATE     750.000    
 BOUNDARY    135   LAYER   2   ROW     9   COL    15   RATE     750.000    
 BOUNDARY    137   LAYER   1   ROW    10   COL     2   RATE     750.000    
 BOUNDARY    138   LAYER   1   ROW    10   COL     3   RATE     750.000    
 BOUNDARY    139   LAYER   1   ROW    10   COL     4   RATE     750.000    
 BOUNDARY    140   LAYER   1   ROW    10   COL     5   RATE     750.000    
 BOUNDARY    141   LAYER   1   ROW    10   COL     6   RATE     750.000    
 BOUNDARY    142   LAYER   1   ROW    10   COL     7   RATE     750.000    
 BOUNDARY    143   LAYER   1   ROW    10   COL     8   RATE     750.000    
 BOUNDARY    144   LAYER   1   ROW    10   COL     9   RATE     750.000    
 BOUNDARY    145   LAYER   1   ROW    10   COL    10   RATE     750.000    
 BOUNDARY    146   LAYER   1   ROW    10   COL    11   RATE     750.000    
 BOUNDARY    147   LAYER   1   ROW    10   COL    12   RATE     750.000    
 BOUNDARY    148   LAYER   1   ROW    10   COL    13   RATE     750.000    
 BOUNDARY    149   LAYER   1   ROW    10   COL    14   RATE     750.000    
 BOUNDARY    150   LAYER   2   ROW    10   COL    15   RATE     750.000    
 UBDSV4 SAVING CONSTANT HEADS   ON UNIT   1017 AT TIME STEP      5, STRESS PERIOD      2

 CONSTANT HEADS     PERIOD  2   STEP  5
 BOUNDARY      1   LAYER   1   ROW     1   COL     1   RATE    -1718.63      CHD-1
 BOUNDARY      2   LAYER   1   ROW     4   COL     1   RATE     2366.46    
 BOUNDARY      3   LAYER   1   ROW     5   COL     1   RATE    -2422.48      CHD_GP
 BOUNDARY      4   LAYER   1   ROW     6   COL     1   RATE     1566.18      CHD_GP
 BOUNDARY      5   LAYER   1   ROW    10   COL     1   RATE    -4295.36      CHD-10
1
  HEAD             IN LAYER   1 AT END OF TIME STEP   5 IN STRESS PERIOD    2
  ---------------------------------------------------------------------------

           1       2       3       4       5       6       7       8       9      10      11      12      13      14      15
 ...........................................................................................................................
   1   120.00  127.80  134.49  139.80  143.78  146.49  148.00  148.37  147.65  145.88  143.10  139.49  135.47  132.18  777.77
   2   117.63  126.47  133.98  139.58  143.72  146.48  148.00  148.38  147.66  145.89  143.11  139.49  135.48  132.18  777.77
   3   101.00  123.72  133.37  139.20  143.66  146.49  148.03  148.41  147.68  145.90  143.12  139.50  135.49  132.19  777.77
   4   120.00  127.10  134.21  139.72  143.83  146.57  148.08  148.44  147.71  145.93  143.14  139.52  135.50  132.20  777.77
   5   120.00  127.95  134.69  140.02  143.99  146.67  148.15  148.49  147.75  145.96  143.16  139.54  135.51  132.22  777.77
   6   120.00  127.58  134.68  140.13  144.11  146.77  148.22  148.55  147.80  145.99  143.19  139.56  135.53  132.23  777.77
   7   104.18  125.16  134.38  140.15  144.22  146.87  148.30  148.61  147.84  146.02  143.22  139.58  135.55  132.25  777.77
   8   120.68  128.46  135.29  140.27  144.36  146.99  148.39  148.67  147.88  146.05  143.24  139.60  135.56  132.26  777.77
   9   124.44  130.19  136.10  140.91  144.62  147.11  148.46  148.72  147.91  146.07  143.25  139.61  135.58  132.27  777.77
  10   120.00  129.68  136.24  141.13  144.75  147.18  148.50  148.74  147.93  146.09  143.26  139.62  135.58  132.28  777.77
1
  HEAD             IN LAYER   2 AT END OF TIME STEP   5 IN STRESS PERIOD    2
  ---------------------------------------------------------------------------

           1       2       3       4       5       6       7       8       9      10      11      12      13      14      15
 ...........................................................................................................................
   1   122.86  124.61  125.45  126.10  133.59  140.13  143.73  144.71  143.53  140.12  133.77  122.75  103.37   67.94    0.41
   2   120.86  121.58  117.96  108.91  126.35  137.78  143.06  144.54  143.49  140.11  133.78  122.76  103.37   67.94    0.41
   3   117.88  117.86  104.52   46.52  113.14  134.87  142.41  144.41  143.48  140.12  133.79  122.77  103.38   67.95    0.41
   4   121.32  121.83  118.12  109.03  126.46  137.87  143.14  144.61  143.54  140.15  133.81  122.78  103.39   67.96    0.41
   5   123.03  124.80  125.67  126.31  133.80  140.32  143.88  144.84  143.62  140.19  133.83  122.80  103.40   67.96    0.41
   6   122.78  124.77  125.75  126.40  133.89  140.40  143.95  144.89  143.67  140.23  133.86  122.82  103.42   67.97    0.41
   7   120.24  121.98  118.52  109.26  126.73  138.13  143.35  144.77  143.67  140.25  133.88  122.84  103.43   67.98    0.41
   8   122.07  120.20  105.73   46.56  113.55  135.28  142.75  144.67  143.67  140.27  133.90  122.85  103.44   67.99    0.41
   9   124.44  124.17  119.65  109.89  127.10  138.36  143.50  144.88  143.74  140.30  133.92  122.86  103.45   67.99    0.41
  10   125.16  126.77  127.16  127.32  134.50  140.81  144.23  145.08  143.80  140.32  133.93  122.87  103.46   68.00    0.41

 HEAD WILL BE SAVED ON UNIT 1018 AT END OF TIME STEP    5, STRESS PERIOD    2
1
  VOLUME BUDGET FOR ENTIRE MODEL AT END OF TIME STEP    5, STRESS PERIOD   2
  ------------------------------------------------------------------------------

     CUMULATIVE VOLUME      L**3       RATES FOR THIS TIME STEP      L**3/T
     ------------------                 ------------------------

           IN:                                      IN:
           ---                                      ---
         STORAGE(SS) =       82246.2850           STORAGE(SS) =        8996.6381
         STORAGE(SY) =      224060.0362           STORAGE(SY) =       49002.8506
    WELLS NEAR RIVER =           0.0000      WELLS NEAR RIVER =           0.0000
               RIVER =           0.0000                 RIVER =           0.0000
           GHB LAKES =      489348.6059             GHB LAKES =       81522.6831
            RECHARGE =      616250.0000              RECHARGE =      108750.0000
      CONSTANT HEADS =       54049.0688        CONSTANT HEADS =        9002.0009

            TOTAL IN =     1465953.9959              TOTAL IN =      257274.1726

          OUT:                                     OUT:
          ----                                     ----
         STORAGE(SS) =          79.8380           STORAGE(SS) =          16.6058
         STORAGE(SY) =      128490.5378           STORAGE(SY) =       21977.5193
    WELLS NEAR RIVER =      350000.0000      WELLS NEAR RIVER =       70000.0000
               RIVER =      240406.2376                 RIVER =       40874.4924
           GHB LAKES =      665057.7586             GHB LAKES =      110899.7249
            RECHARGE =           0.0000              RECHARGE =           0.0000
      CONSTANT HEADS =       81919.6301        CONSTANT HEADS =       13505.8302

           TOTAL OUT =     1465954.0021             TOTAL OUT =      257274.1726

            IN - OUT =      -6.2199E-03              IN - OUT =      -9.3998E-06

 PERCENT DISCREPANCY =          -0.00     PERCENT DISCREPANCY =          -0.00






         TIME SUMMARY AT END OF TIME STEP    5 IN STRESS PERIOD    2
                    SECONDS     MINUTES      HOURS       DAYS        YEARS
                    -----------------------------------------------------------
   TIME STEP LENGTH  86400.      1440.0      24.000     1.00000     2.73785E-03
 STRESS PERIOD TIME 4.32000E+05  7200.0      120.00      5.0000     1.36893E-02
         TOTAL TIME 5.18400E+05  8640.0      144.00      6.0000     1.64271E-02

 OUTPUT CONTROL FOR STRESS PERIOD    2   TIME STEP    6
    PRINT BUDGET
    PRINT HEAD
    PRINT HEAD FOR ALL LAYERS
    SAVE BUDGET
    SAVE HEAD
    SAVE HEAD FOR ALL LAYERS
 UBDSV1 SAVING      STORAGE(SS) ON UNIT   1017 AT TIME STEP      6, STRESS PERIOD      2
 UBDSV1 SAVING      STORAGE(SY) ON UNIT   1017 AT TIME STEP      6, STRESS PERIOD      2
 UBDSV1 SAVING FLOW RIGHT FACE  ON UNIT   1017 AT TIME STEP      6, STRESS PERIOD      2
 UBDSV1 SAVING FLOW FRONT FACE  ON UNIT   1017 AT TIME STEP      6, STRESS PERIOD      2
 UBDSV1 SAVING FLOW LOWER FACE  ON UNIT   1017 AT TIME STEP      6, STRESS PERIOD      2
 UBDSV4 SAVING WELLS NEAR RIVER ON UNIT   1017 AT TIME STEP      6, STRESS PERIOD      2

 WELLS NEAR RIVER   PERIOD  2   STEP  6
 BOUNDARY      1   LAYER   2   ROW     3   COL     4   RATE    -35000.0    
 BOUNDARY      2   LAYER   2   ROW     8   COL     4   RATE    -35000.0    
 UBDSV4 SAVING RIVER            ON UNIT   1017 AT TIME STEP      6, STRESS PERIOD      2

 RIVER              PERIOD  2   STEP  6
 BOUNDARY      1   LAYER   2   ROW     1   COL    15   RATE    -4098.56    
 BOUNDARY      2   LAYER   2   ROW     2   COL    15   RATE    -4098.69      RIV2
 BOUNDARY      3   LAYER   2   ROW     3   COL    15   RATE    -4098.92      RIV3
 BOUNDARY      4   LAYER   2   ROW     4   COL    15   RATE    -4099.25    
 BOUNDARY      5   LAYER   2   ROW     5   COL    15   RATE    -4099.64    
 BOUNDARY      6   LAYER   2   ROW     6   COL    15   RATE    -4100.06    
 BOUNDARY      7   LAYER   2   ROW     7   COL    15   RATE    -4100.47      RIVX
 BOUNDARY      8   LAYER   2   ROW     8   COL    15   RATE    -4100.82      RIVX
 BOUNDARY      9   LAYER   2   ROW     9   COL    15   RATE    -4101.08      RIVX
 BOUNDARY     10   LAYER   2   ROW    10   COL    15   RATE    -4101.22    

 GHB LAKES          PERIOD  2   STEP  6
 BOUNDARY      1   LAYER   1   ROW     3   COL     1   RATE    -15004.9    
 BOUNDARY      2   LAYER   1   ROW     7   COL     1   RATE     81530.5      GHB2_UPPER
 BOUNDARY      3   LAYER   1   ROW     7   COL     1   RATE    -95882.0      GHB2_LOWER
 UBDSV4 SAVING RECHARGE         ON UNIT   1017 AT TIME STEP      6, STRESS PERIOD      2

 RECHARGE           PERIOD  2   STEP  6
 BOUNDARY      2   LAYER   1   ROW     1   COL     2   RATE     750.000    
 BOUNDARY      3   LAYER   1   ROW     1   COL     3   RATE     750.000    
 BOUNDARY      4   LAYER   1   ROW     1   COL     4   RATE     750.000    
 BOUNDARY      5   LAYER   1   ROW     1   COL     5   RATE     750.000    
 BOUNDARY      6   LAYER   1   ROW     1   COL     6   RATE     750.000    
 BOUNDARY      7   LAYER   1   ROW     1   COL     7   RATE     750.000    
 BOUNDARY      8   LAYER   1   ROW     1   COL     8   RATE     750.000    
 BOUNDARY      9   LAYER   1   ROW     1   COL     9   RATE     750.000    
 BOUNDARY     10   LAYER   1   ROW     1   COL    10   RATE     750.000    
 BOUNDARY     11   LAYER   1   ROW     1   COL    11   RATE     750.000    
 BOUNDARY     12   LAYER   1   ROW     1   COL    12   RATE     750.000    
 BOUNDARY     13   LAYER   1   ROW     1   COL    13   RATE     750.000    
 BOUNDARY     14   LAYER   1   ROW     1   COL    14   RATE     750.000    
 BOUNDARY     15   LAYER   2   ROW     1   COL    15   RATE     750.000    
 BOUNDARY     16   LAYER   1   ROW     2   COL     1   RATE     750.000    
 BOUNDARY     17   LAYER   1   ROW     2   COL     2   RATE     750.000    
 BOUNDARY     18   LAYER   1   ROW     2   COL     3   RATE     750.000    
 BOUNDARY     19   LAYER   1   ROW     2   COL     4   RATE     750.000    
 BOUNDARY     20   LAYER   1   ROW     2   COL     5   RATE     750.000    
 BOUNDARY     21   LAYER   1   ROW     2   COL     6   RATE     750.000    
 BOUNDARY     22   LAYER   1   ROW     2   COL     7   RATE     750.000    
 BOUNDARY     23   LAYER   1   ROW     2   COL     8   RATE     750.000    
 BOUNDARY     24   LAYER   1   ROW     2   COL     9   RATE     750.000    
 BOUNDARY     25   LAYER   1   ROW     2   COL    10   RATE     750.000    
 BOUNDARY     26   LAYER   1   ROW     2   COL    11   RATE     750.000    
 BOUNDARY     27   LAYER   1   ROW     2   COL    12   RATE     750.000    
 BOUNDARY     28   LAYER   1   ROW     2   COL    13   RATE     750.000    
 BOUNDARY     29   LAYER   1   ROW     2   COL    14   RATE     750.000    
 BOUNDARY     30   LAYER   2   ROW     2   COL    15   RATE     750.000    
 BOUNDARY     31   LAYER   1   ROW     3   COL     1   RATE     750.000    
 BOUNDARY     32   LAYER   1   ROW     3   COL     2   RATE     750.000    
 BOUNDARY     33   LAYER   1   ROW     3   COL     3   RATE     750.000    
 BOUNDARY     34   LAYER   1   ROW     3   COL     4   RATE     750.000    
 BOUNDARY     35   LAYER   1   ROW     3   COL     5   RATE     750.000    
 BOUNDARY     36   LAYER   1   ROW     3   COL     6   RATE     750.000    
 BOUNDARY     37   LAYER   1   ROW     3   COL     7   RATE     750.000    
 BOUNDARY     38   LAYER   1   ROW     3   COL     8   RATE     750.000    
 BOUNDARY     39   LAYER   1   ROW     3   COL     9   RATE     750.000    
 BOUNDARY     40   LAYER   1   ROW     3   COL    10   RATE     750.000    
 BOUNDARY     41   LAYER   1   ROW     3   COL    11   RATE     750.000    
 BOUNDARY     42   LAYER   1   ROW     3   COL    12   RATE     750.000    
 BOUNDARY     43   LAYER   1   ROW     3   COL    13   RATE     750.000    
 BOUNDARY     44   LAYER   1   ROW     3   COL    14   RATE     750.000    
 BOUNDARY     45   LAYER   2   ROW     3   COL    15   RATE     750.000    
 BOUNDARY     47   LAYER   1   ROW     4   COL     2   RATE     750.000    
 BOUNDARY     48   LAYER   1   ROW     4   COL     3   RATE     750.000    
 BOUNDARY     49   LAYER   1   ROW     4   COL     4   RATE     750.000    
 BOUNDARY     50   LAYER   1   ROW     4   COL     5   RATE     750.000    
 BOUNDARY     51   LAYER   1   ROW     4   COL     6   RATE     750.000    
 BOUNDARY     52   LAYER   1   ROW     4   COL     7   RATE     750.000    
 BOUNDARY     53   LAYER   1   ROW     4   COL     8   RATE     750.000    
 BOUNDARY     54   LAYER   1   ROW     4   COL     9   RATE     750.000    
 BOUNDARY     55   LAYER   1   ROW     4   COL    10   RATE     750.000    
 BOUNDARY     56   LAYER   1   ROW     4   COL    11   RATE     750.000    
 BOUNDARY     57   LAYER   1   ROW     4   COL    12   RATE     750.000    
 BOUNDARY     58   LAYER   1   ROW     4   COL    13   RATE     750.000    
 BOUNDARY     59   LAYER   1   ROW     4   COL    14   RATE     750.000    
 BOUNDARY     60   LAYER   2   ROW     4   COL    15   RATE     750.000    
 BOUNDARY     62   LAYER   1   ROW     5   COL     2   RATE     750.000    
 BOUNDARY     63   LAYER   1   ROW     5   COL     3   RATE     750.000    
 BOUNDARY     64   LAYER   1   ROW     5   COL     4   RATE     750.000    
 BOUNDARY     65   LAYER   1   ROW     5   COL     5   RATE     750.000    
 BOUNDARY     66   LAYER   1   ROW     5   COL     6   RATE     750.000    
 BOUNDARY     67   LAYER   1   ROW     5   COL     7   RATE     750.000    
 BOUNDARY     68   LAYER   1   ROW     5   COL     8   RATE     750.000    
 BOUNDARY     69   LAYER   1   ROW     5   COL     9   RATE     750.000    
 BOUNDARY     70   LAYER   1   ROW     5   COL    10   RATE     750.000    
 BOUNDARY     71   LAYER   1   ROW     5   COL    11   RATE     750.000    
 BOUNDARY     72   LAYER   1   ROW     5   COL    12   RATE     750.000    
 BOUNDARY     73   LAYER   1   ROW     5   COL    13   RATE     750.000    
 BOUNDARY     74   LAYER   1   ROW     5   COL    14   RATE     750.000    
 BOUNDARY     75   LAYER   2   ROW     5   COL    15   RATE     750.000    
 BOUNDARY     77   LAYER   1   ROW     6   COL     2   RATE     750.000    
 BOUNDARY     78   LAYER   1   ROW     6   COL     3   RATE     750.000    
 BOUNDARY     79   LAYER   1   ROW     6   COL     4   RATE     750.000    
 BOUNDARY     80   LAYER   1   ROW     6   COL     5   RATE     750.000    
 BOUNDARY     81   LAYER   1   ROW     6   COL     6   RATE     750.000    
 BOUNDARY     82   LAYER   1   ROW     6   COL     7   RATE     750.000    
 BOUNDARY     83   LAYER   1   ROW     6   COL     8   RATE     750.000    
 BOUNDARY     84   LAYER   1   ROW     6   COL     9   RATE     750.000    
 BOUNDARY     85   LAYER   1   ROW     6   COL    10   RATE     750.000    
 BOUNDARY     86   LAYER   1   ROW     6   COL    11   RATE     750.000    
 BOUNDARY     87   LAYER   1   ROW     6   COL    12   RATE     750.000    
 BOUNDARY     88   LAYER   1   ROW     6   COL    13   RATE     750.000    
 BOUNDARY     89   LAYER   1   ROW     6   COL    14   RATE     750.000    
 BOUNDARY     90   LAYER   2   ROW     6   COL    15   RATE     750.000    
 BOUNDARY     91   LAYER   1   ROW     7   COL     1   RATE     750.000    
 BOUNDARY     92   LAYER   1   ROW     7   COL     2   RATE     750.000    
 BOUNDARY     93   LAYER   1   ROW     7   COL     3   RATE     750.000    
 BOUNDARY     94   LAYER   1   ROW     7   COL     4   RATE     750.000    
 BOUNDARY     95   LAYER   1   ROW     7   COL     5   RATE     750.000    
 BOUNDARY     96   LAYER   1   ROW     7   COL     6   RATE     750.000    
 BOUNDARY     97   LAYER   1   ROW     7   COL     7   RATE     750.000    
 BOUNDARY     98   LAYER   1   ROW     7   COL     8   RATE     750.000    
 BOUNDARY     99   LAYER   1   ROW     7   COL     9   RATE     750.000    
 BOUNDARY    100   LAYER   1   ROW     7   COL    10   RATE     750.000    
 BOUNDARY    101   LAYER   1   ROW     7   COL    11   RATE     750.000    
 BOUNDARY    102   LAYER   1   ROW     7   COL    12   RATE     750.000    
 BOUNDARY    103   LAYER   1   ROW     7   COL    13   RATE     750.000    
 BOUNDARY    104   LAYER   1   ROW     7   COL    14   RATE     750.000    
 BOUNDARY    105   LAYER   2   ROW     7   COL    15   RATE     750.000    
 BOUNDARY    106   LAYER   1   ROW     8   COL     1   RATE     750.000    
 BOUNDARY    107   LAYER   1   ROW     8   COL     2   RATE     750.000    
 BOUNDARY    108   LAYER   1   ROW     8   COL     3   RATE     750.000    
 BOUNDARY    109   LAYER   1   ROW     8   COL     4   RATE     750.000    
 BOUNDARY    110   LAYER   1   ROW     8   COL     5   RATE     750.000    
 BOUNDARY    111   LAYER   1   ROW     8   COL     6   RATE     750.000    
 BOUNDARY    112   LAYER   1   ROW     8   COL     7   RATE     750.000    
 BOUNDARY    113   LAYER   1   ROW     8   COL     8   RATE     750.000    
 BOUNDARY    114   LAYER   1   ROW     8   COL     9   RATE     750.000    
 BOUNDARY    115   LAYER   1   ROW     8   COL    10   RATE     750.000    
 BOUNDARY    116   LAYER   1   ROW     8   COL    11   RATE     750.000    
 BOUNDARY    117   LAYER   1   ROW     8   COL    12   RATE     750.000    
 BOUNDARY    118   LAYER   1   ROW     8   COL    13   RATE     750.000    
 BOUNDARY    119   LAYER   1   ROW     8   COL    14   RATE     750.000    
 BOUNDARY    120   LAYER   2   ROW     8   COL    15   RATE     750.000    
 BOUNDARY    121   LAYER   1   ROW     9   COL     1   RATE     750.000    
 BOUNDARY    122   LAYER   1   ROW     9   COL     2   RATE     750.000    
 BOUNDARY    123   LAYER   1   ROW     9   COL     3   RATE     750.000    
 BOUNDARY    124   LAYER   1   ROW     9   COL     4   RATE     750.000    
 BOUNDARY    125   LAYER   1   ROW     9   COL     5   RATE     750.000    
 BOUNDARY    126   LAYER   1   ROW     9   COL     6   RATE     750.000    
 BOUNDARY    127   LAYER   1   ROW     9   COL     7   RATE     750.000    
 BOUNDARY    128   LAYER   1   ROW     9   COL     8   RATE     750.000    
 BOUNDARY    129   LAYER   1   ROW     9   COL     9   RATE     750.000    
 BOUNDARY    130   LAYER   1   ROW     9   COL    10   RATE     750.000    
 BOUNDARY    131   LAYER   1   ROW     9   COL    11   RATE     750.000    
 BOUNDARY    132   LAYER   1   ROW     9   COL    12   RATE     750.000    
 BOUNDARY    133   LAYER   1   ROW     9   COL    13   RATE     750.000    
 BOUNDARY    134   LAYER   1   ROW     9   COL    14   RATE     750.000    
 BOUNDARY    135   LAYER   2   ROW     9   COL    15   RATE     750.000    
 BOUNDARY    137   LAYER   1   ROW    10   COL     2   RATE     750.000    
 BOUNDARY    138   LAYER   1   ROW    10   COL     3   RATE     750.000    
 BOUNDARY    139   LAYER   1   ROW    10   COL     4   RATE     750.000    
 BOUNDARY    140   LAYER   1   ROW    10   COL     5   RATE     750.000    
 BOUNDARY    141   LAYER   1   ROW    10   COL     6   RATE     750.000    
 BOUNDARY    142   LAYER   1   ROW    10   COL     7   RATE     750.000    
 BOUNDARY    143   LAYER   1   ROW    10   COL     8   RATE     750.000    
 BOUNDARY    144   LAYER   1   ROW    10   COL     9   RATE     750.000    
 BOUNDARY    145   LAYER   1   ROW    10   COL    10   RATE     750.000    
 BOUNDARY    146   LAYER   1   ROW    10   COL    11   RATE     750.000    
 BOUNDARY    147   LAYER   1   ROW    10   COL    12   RATE     750.000    
 BOUNDARY    148   LAYER   1   ROW    10   COL    13   RATE     750.000    
 BOUNDARY    149   LAYER   1   ROW    10   COL    14   RATE     750.000    
 BOUNDARY    150   LAYER   2   ROW    10   COL    15   RATE     750.000    
 UBDSV4 SAVING CONSTANT HEADS   ON UNIT   1017 AT TIME STEP      6, STRESS PERIOD      2

 CONSTANT HEADS     PERIOD  2   STEP  6
 BOUNDARY      1   LAYER   1   ROW     1   COL     1   RATE    -1705.25      CHD-1
 BOUNDARY      2   LAYER   1   ROW     4   COL     1   RATE     2383.62    
 BOUNDARY      3   LAYER   1   ROW     5   COL     1   RATE    -2407.54      CHD_GP
 BOUNDARY      4   LAYER   1   ROW     6   COL     1   RATE     1581.28      CHD_GP
 BOUNDARY      5   LAYER   1   ROW    10   COL     1   RATE    -4282.03      CHD-10
1
  HEAD             IN LAYER   1 AT END OF TIME STEP   6 IN STRESS PERIOD    2
  ---------------------------------------------------------------------------

           1       2       3       4       5       6       7       8       9      10      11      12      13      14      15
 ...........................................................................................................................
   1   120.00  127.80  134.49  139.80  143.78  146.49  148.00  148.38  147.66  145.89  143.11  139.50  135.48  132.19  777.77
   2   117.64  126.48  133.98  139.56  143.71  146.48  148.01  148.39  147.67  145.90  143.12  139.50  135.49  132.19  777.77
   3   101.00  123.72  133.35  139.13  143.64  146.49  148.03  148.41  147.69  145.91  143.13  139.51  135.49  132.20  777.77
   4   120.00  127.10  134.21  139.69  143.82  146.57  148.09  148.45  147.72  145.94  143.15  139.53  135.51  132.21  777.77
   5   120.00  127.96  134.69  140.02  143.99  146.67  148.16  148.50  147.76  145.97  143.17  139.55  135.52  132.23  777.77
   6   120.00  127.58  134.68  140.13  144.11  146.77  148.23  148.56  147.80  146.00  143.20  139.57  135.54  132.24  777.77
   7   104.18  125.16  134.37  140.13  144.21  146.87  148.31  148.62  147.85  146.03  143.22  139.59  135.56  132.26  777.77
   8   120.69  128.46  135.27  140.21  144.34  146.99  148.39  148.68  147.89  146.06  143.25  139.61  135.57  132.27  777.77
   9   124.44  130.19  136.10  140.89  144.61  147.11  148.47  148.72  147.92  146.08  143.26  139.62  135.59  132.28  777.77
  10   120.00  129.68  136.24  141.13  144.75  147.19  148.51  148.75  147.94  146.10  143.27  139.63  135.59  132.29  777.77
1
  HEAD             IN LAYER   2 AT END OF TIME STEP   6 IN STRESS PERIOD    2
  ---------------------------------------------------------------------------

           1       2       3       4       5       6       7       8       9      10      11      12      13      14      15
 ...........................................................................................................................
   1   122.21  123.77  124.38  124.95  132.56  139.39  143.30  144.50  143.44  140.09  133.77  122.75  103.37   67.95    0.41
   2   120.16  120.69  116.87  107.81  125.29  136.99  142.59  144.32  143.40  140.08  133.77  122.76  103.38   67.95    0.41
   3   117.14  116.95  103.48   45.71  112.14  134.06  141.93  144.18  143.38  140.09  133.78  122.77  103.38   67.95    0.41
   4   120.62  120.94  117.02  107.94  125.40  137.08  142.67  144.38  143.45  140.12  133.80  122.78  103.40   67.96    0.41
   5   122.37  123.96  124.60  125.16  132.76  139.57  143.45  144.63  143.54  140.17  133.83  122.80  103.41   67.97    0.41
   6   122.12  123.93  124.68  125.25  132.85  139.65  143.52  144.68  143.58  140.20  133.85  122.82  103.42   67.98    0.41
   7   119.53  121.08  117.41  108.16  125.66  137.33  142.88  144.54  143.57  140.22  133.87  122.84  103.44   67.98    0.41
   8   121.33  119.28  104.68   45.76  112.54  134.47  142.26  144.43  143.57  140.24  133.89  122.85  103.45   67.99    0.41
   9   123.73  123.27  118.54  108.78  126.03  137.56  143.03  144.65  143.65  140.27  133.91  122.87  103.46   68.00    0.41
  10   124.51  125.92  126.08  126.17  133.45  140.06  143.79  144.87  143.72  140.30  133.92  122.87  103.46   68.00    0.41

 HEAD WILL BE SAVED ON UNIT 1018 AT END OF TIME STEP    6, STRESS PERIOD    2
1
  VOLUME BUDGET FOR ENTIRE MODEL AT END OF TIME STEP    6, STRESS PERIOD   2
  ------------------------------------------------------------------------------

     CUMULATIVE VOLUME      L**3       RATES FOR THIS TIME STEP      L**3/T
     ------------------                 ------------------------

           IN:                                      IN:
           ---                                      ---
         STORAGE(SS) =       89583.9499           STORAGE(SS) =        7337.6649
         STORAGE(SY) =      273713.4486           STORAGE(SY) =       49653.4124
    WELLS NEAR RIVER =           0.0000      WELLS NEAR RIVER =           0.0000
               RIVER =           0.0000                 RIVER =           0.0000
           GHB LAKES =      570879.1117             GHB LAKES =       81530.5058
            RECHARGE =      725000.0000              RECHARGE =      108750.0000
      CONSTANT HEADS =       63049.8341        CONSTANT HEADS =        9000.7653

            TOTAL IN =     1722226.3443              TOTAL IN =      256272.3484

          OUT:                                     OUT:
          ----                                     ----
         STORAGE(SS) =          94.7795           STORAGE(SS) =          14.9415
         STORAGE(SY) =      149431.6835           STORAGE(SY) =       20941.1457
    WELLS NEAR RIVER =      420000.0000      WELLS NEAR RIVER =       70000.0000
               RIVER =      281404.9522                 RIVER =       40998.7145
           GHB LAKES =      775944.6150             GHB LAKES =      110886.8564
            RECHARGE =           0.0000              RECHARGE =           0.0000
      CONSTANT HEADS =       95350.3203        CONSTANT HEADS =       13430.6902

           TOTAL OUT =     1722226.3505             TOTAL OUT =      256272.3484

            IN - OUT =      -6.2260E-03              IN - OUT =      -6.0144E-06

 PERCENT DISCREPANCY =          -0.00     PERCENT DISCREPANCY =          -0.00






         TIME SUMMARY AT END OF TIME STEP    6 IN STRESS PERIOD    2
                    SECONDS     MINUTES      HOURS       DAYS        YEARS
                    -----------------------------------------------------------
   TIME STEP LENGTH  86400.      1440.0      24.000     1.00000     2.73785E-03
 STRESS PERIOD TIME 5.18400E+05  8640.0      144.00      6.0000     1.64271E-02
         TOTAL TIME 6.04800E+05  10080.      168.00      7.0000     1.91650E-02

 OUTPUT CONTROL FOR STRESS PERIOD    2   TIME STEP    7
    PRINT BUDGET
    PRINT HEAD
    PRINT HEAD FOR ALL LAYERS
    SAVE BUDGET
    SAVE HEAD
    SAVE HEAD FOR ALL LAYERS
 UBDSV1 SAVING      STORAGE(SS) ON UNIT   1017 AT TIME STEP      7, STRESS PERIOD      2
 UBDSV1 SAVING      STORAGE(SY) ON UNIT   1017 AT TIME STEP      7, STRESS PERIOD      2
 UBDSV1 SAVING FLOW RIGHT FACE  ON UNIT   1017 AT TIME STEP      7, STRESS PERIOD      2
 UBDSV1 SAVING FLOW FRONT FACE  ON UNIT   1017 AT TIME STEP      7, STRESS PERIOD      2
 UBDSV1 SAVING FLOW LOWER FACE  ON UNIT   1017 AT TIME STEP      7, STRESS PERIOD      2
 UBDSV4 SAVING WELLS NEAR RIVER ON UNIT   1017 AT TIME STEP      7, STRESS PERIOD      2

 WELLS NEAR RIVER   PERIOD  2   STEP  7
 BOUNDARY      1   LAYER   2   ROW     3   COL     4   RATE    -35000.0    
 BOUNDARY      2   LAYER   2   ROW     8   COL     4   RATE    -35000.0    
 UBDSV4 SAVING RIVER            ON UNIT   1017 AT TIME STEP      7, STRESS PERIOD      2

 RIVER              PERIOD  2   STEP  7
 BOUNDARY      1   LAYER   2   ROW     1   COL    15   RATE    -4107.25    
 BOUNDARY      2   LAYER   2   ROW     2   COL    15   RATE    -4107.37      RIV2
 BOUNDARY      3   LAYER   2   ROW     3   COL    15   RATE    -4107.60      RIV3
 BOUNDARY      4   LAYER   2   ROW     4   COL    15   RATE    -4107.93    
 BOUNDARY      5   LAYER   2   ROW     5   COL    15   RATE    -4108.32    
 BOUNDARY      6   LAYER   2   ROW     6   COL    15   RATE    -4108.74    
 BOUNDARY      7   LAYER   2   ROW     7   COL    15   RATE    -4109.15      RIVX
 BOUNDARY      8   LAYER   2   ROW     8   COL    15   RATE    -4109.50      RIVX
 BOUNDARY      9   LAYER   2   ROW     9   COL    15   RATE    -4109.76      RIVX
 BOUNDARY     10   LAYER   2   ROW    10   COL    15   RATE    -4109.90    

 GHB LAKES          PERIOD  2   STEP  7
 BOUNDARY      1   LAYER   1   ROW     3   COL     1   RATE    -14992.7    
 BOUNDARY      2   LAYER   1   ROW     7   COL     1   RATE     81539.6      GHB2_UPPER
 BOUNDARY      3   LAYER   1   ROW     7   COL     1   RATE    -95878.7      GHB2_LOWER
 UBDSV4 SAVING RECHARGE         ON UNIT   1017 AT TIME STEP      7, STRESS PERIOD      2

 RECHARGE           PERIOD  2   STEP  7
 BOUNDARY      2   LAYER   1   ROW     1   COL     2   RATE     750.000    
 BOUNDARY      3   LAYER   1   ROW     1   COL     3   RATE     750.000    
 BOUNDARY      4   LAYER   1   ROW     1   COL     4   RATE     750.000    
 BOUNDARY      5   LAYER   1   ROW     1   COL     5   RATE     750.000    
 BOUNDARY      6   LAYER   1   ROW     1   COL     6   RATE     750.000    
 BOUNDARY      7   LAYER   1   ROW     1   COL     7   RATE     750.000    
 BOUNDARY      8   LAYER   1   ROW     1   COL     8   RATE     750.000    
 BOUNDARY      9   LAYER   1   ROW     1   COL     9   RATE     750.000    
 BOUNDARY     10   LAYER   1   ROW     1   COL    10   RATE     750.000    
 BOUNDARY     11   LAYER   1   ROW     1   COL    11   RATE     750.000    
 BOUNDARY     12   LAYER   1   ROW     1   COL    12   RATE     750.000    
 BOUNDARY     13   LAYER   1   ROW     1   COL    13   RATE     750.000    
 BOUNDARY     14   LAYER   1   ROW     1   COL    14   RATE     750.000    
 BOUNDARY     15   LAYER   2   ROW     1   COL    15   RATE     750.000    
 BOUNDARY     16   LAYER   1   ROW     2   COL     1   RATE     750.000    
 BOUNDARY     17   LAYER   1   ROW     2   COL     2   RATE     750.000    
 BOUNDARY     18   LAYER   1   ROW     2   COL     3   RATE     750.000    
 BOUNDARY     19   LAYER   1   ROW     2   COL     4   RATE     750.000    
 BOUNDARY     20   LAYER   1   ROW     2   COL     5   RATE     750.000    
 BOUNDARY     21   LAYER   1   ROW     2   COL     6   RATE     750.000    
 BOUNDARY     22   LAYER   1   ROW     2   COL     7   RATE     750.000    
 BOUNDARY     23   LAYER   1   ROW     2   COL     8   RATE     750.000    
 BOUNDARY     24   LAYER   1   ROW     2   COL     9   RATE     750.000    
 BOUNDARY     25   LAYER   1   ROW     2   COL    10   RATE     750.000    
 BOUNDARY     26   LAYER   1   ROW     2   COL    11   RATE     750.000    
 BOUNDARY     27   LAYER   1   ROW     2   COL    12   RATE     750.000    
 BOUNDARY     28   LAYER   1   ROW     2   COL    13   RATE     750.000    
 BOUNDARY     29   LAYER   1   ROW     2   COL    14   RATE     750.000    
 BOUNDARY     30   LAYER   2   ROW     2   COL    15   RATE     750.000    
 BOUNDARY     31   LAYER   1   ROW     3   COL     1   RATE     750.000    
 BOUNDARY     32   LAYER   1   ROW     3   COL     2   RATE     750.000    
 BOUNDARY     33   LAYER   1   ROW     3   COL     3   RATE     750.000    
 BOUNDARY     34   LAYER   1   ROW     3   COL     4   RATE     750.000    
 BOUNDARY     35   LAYER   1   ROW     3   COL     5   RATE     750.000    
 BOUNDARY     36   LAYER   1   ROW     3   COL     6   RATE     750.000    
 BOUNDARY     37   LAYER   1   ROW     3   COL     7   RATE     750.000    
 BOUNDARY     38   LAYER   1   ROW     3   COL     8   RATE     750.000    
 BOUNDARY     39   LAYER   1   ROW     3   COL     9   RATE     750.000    
 BOUNDARY     40   LAYER   1   ROW     3   COL    10   RATE     750.000    
 BOUNDARY     41   LAYER   1   ROW     3   COL    11   RATE     750.000    
 BOUNDARY     42   LAYER   1   ROW     3   COL    12   RATE     750.000    
 BOUNDARY     43   LAYER   1   ROW     3   COL    13   RATE     750.000    
 BOUNDARY     44   LAYER   1   ROW     3   COL    14   RATE     750.000    
 BOUNDARY     45   LAYER   2   ROW     3   COL    15   RATE     750.000    
 BOUNDARY     47   LAYER   1   ROW     4   COL     2   RATE     750.000    
 BOUNDARY     48   LAYER   1   ROW     4   COL     3   RATE     750.000    
 BOUNDARY     49   LAYER   1   ROW     4   COL     4   RATE     750.000    
 BOUNDARY     50   LAYER   1   ROW     4   COL     5   RATE     750.000    
 BOUNDARY     51   LAYER   1   ROW     4   COL     6   RATE     750.000    
 BOUNDARY     52   LAYER   1   ROW     4   COL     7   RATE     750.000    
 BOUNDARY     53   LAYER   1   ROW     4   COL     8   RATE     750.000    
 BOUNDARY     54   LAYER   1   ROW     4   COL     9   RATE     750.000    
 BOUNDARY     55   LAYER   1   ROW     4   COL    10   RATE     750.000    
 BOUNDARY     56   LAYER   1   ROW     4   COL    11   RATE     750.000    
 BOUNDARY     57   LAYER   1   ROW     4   COL    12   RATE     750.000    
 BOUNDARY     58   LAYER   1   ROW     4   COL    13   RATE     750.000    
 BOUNDARY     59   LAYER   1   ROW     4   COL    14   RATE     750.000    
 BOUNDARY     60   LAYER   2   ROW     4   COL    15   RATE     750.000    
 BOUNDARY     62   LAYER   1   ROW     5   COL     2   RATE     750.000    
 BOUNDARY     63   LAYER   1   ROW     5   COL     3   RATE     750.000    
 BOUNDARY     64   LAYER   1   ROW     5   COL     4   RATE     750.000    
 BOUNDARY     65   LAYER   1   ROW     5   COL     5   RATE     750.000    
 BOUNDARY     66   LAYER   1   ROW     5   COL     6   RATE     750.000    
 BOUNDARY     67   LAYER   1   ROW     5   COL     7   RATE     750.000    
 BOUNDARY     68   LAYER   1   ROW     5   COL     8   RATE     750.000    
 BOUNDARY     69   LAYER   1   ROW     5   COL     9   RATE     750.000    
 BOUNDARY     70   LAYER   1   ROW     5   COL    10   RATE     750.000    
 BOUNDARY     71   LAYER   1   ROW     5   COL    11   RATE     750.000    
 BOUNDARY     72   LAYER   1   ROW     5   COL    12   RATE     750.000    
 BOUNDARY     73   LAYER   1   ROW     5   COL    13   RATE     750.000    
 BOUNDARY     74   LAYER   1   ROW     5   COL    14   RATE     750.000    
 BOUNDARY     75   LAYER   2   ROW     5   COL    15   RATE     750.000    
 BOUNDARY     77   LAYER   1   ROW     6   COL     2   RATE     750.000    
 BOUNDARY     78   LAYER   1   ROW     6   COL     3   RATE     750.000    
 BOUNDARY     79   LAYER   1   ROW     6   COL     4   RATE     750.000    
 BOUNDARY     80   LAYER   1   ROW     6   COL     5   RATE     750.000    
 BOUNDARY     81   LAYER   1   ROW     6   COL     6   RATE     750.000    
 BOUNDARY     82   LAYER   1   ROW     6   COL     7   RATE     750.000    
 BOUNDARY     83   LAYER   1   ROW     6   COL     8   RATE     750.000    
 BOUNDARY     84   LAYER   1   ROW     6   COL     9   RATE     750.000    
 BOUNDARY     85   LAYER   1   ROW     6   COL    10   RATE     750.000    
 BOUNDARY     86   LAYER   1   ROW     6   COL    11   RATE     750.000    
 BOUNDARY     87   LAYER   1   ROW     6   COL    12   RATE     750.000    
 BOUNDARY     88   LAYER   1   ROW     6   COL    13   RATE     750.000    
 BOUNDARY     89   LAYER   1   ROW     6   COL    14   RATE     750.000    
 BOUNDARY     90   LAYER   2   ROW     6   COL    15   RATE     750.000    
 BOUNDARY     91   LAYER   1   ROW     7   COL     1   RATE     750.000    
 BOUNDARY     92   LAYER   1   ROW     7   COL     2   RATE     750.000    
 BOUNDARY     93   LAYER   1   ROW     7   COL     3   RATE     750.000    
 BOUNDARY     94   LAYER   1   ROW     7   COL     4   RATE     750.000    
 BOUNDARY     95   LAYER   1   ROW     7   COL     5   RATE     750.000    
 BOUNDARY     96   LAYER   1   ROW     7   COL     6   RATE     750.000    
 BOUNDARY     97   LAYER   1   ROW     7   COL     7   RATE     750.000    
 BOUNDARY     98   LAYER   1   ROW     7   COL     8   RATE     750.000    
 BOUNDARY     99   LAYER   1   ROW     7   COL     9   RATE     750.000    
 BOUNDARY    100   LAYER   1   ROW     7   COL    10   RATE     750.000    
 BOUNDARY    101   LAYER   1   ROW     7   COL    11   RATE     750.000    
 BOUNDARY    102   LAYER   1   ROW     7   COL    12   RATE     750.000    
 BOUNDARY    103   LAYER   1   ROW     7   COL    13   RATE     750.000    
 BOUNDARY    104   LAYER   1   ROW     7   COL    14   RATE     750.000    
 BOUNDARY    105   LAYER   2   ROW     7   COL    15   RATE     750.000    
 BOUNDARY    106   LAYER   1   ROW     8   COL     1   RATE     750.000    
 BOUNDARY    107   LAYER   1   ROW     8   COL     2   RATE     750.000    
 BOUNDARY    108   LAYER   1   ROW     8   COL     3   RATE     750.000    
 BOUNDARY    109   LAYER   1   ROW     8   COL     4   RATE     750.000    
 BOUNDARY    110   LAYER   1   ROW     8   COL     5   RATE     750.000    
 BOUNDARY    111   LAYER   1   ROW     8   COL     6   RATE     750.000    
 BOUNDARY    112   LAYER   1   ROW     8   COL     7   RATE     750.000    
 BOUNDARY    113   LAYER   1   ROW     8   COL     8   RATE     750.000    
 BOUNDARY    114   LAYER   1   ROW     8   COL     9   RATE     750.000    
 BOUNDARY    115   LAYER   1   ROW     8   COL    10   RATE     750.000    
 BOUNDARY    116   LAYER   1   ROW     8   COL    11   RATE     750.000    
 BOUNDARY    117   LAYER   1   ROW     8   COL    12   RATE     750.000    
 BOUNDARY    118   LAYER   1   ROW     8   COL    13   RATE     750.000    
 BOUNDARY    119   LAYER   1   ROW     8   COL    14   RATE     750.000    
 BOUNDARY    120   LAYER   2   ROW     8   COL    15   RATE     750.000    
 BOUNDARY    121   LAYER   1   ROW     9   COL     1   RATE     750.000    
 BOUNDARY    122   LAYER   1   ROW     9   COL     2   RATE     750.000    
 BOUNDARY    123   LAYER   1   ROW     9   COL     3   RATE     750.000    
 BOUNDARY    124   LAYER   1   ROW     9   COL     4   RATE     750.000    
 BOUNDARY    125   LAYER   1   ROW     9   COL     5   RATE     750.000    
 BOUNDARY    126   LAYER   1   ROW     9   COL     6   RATE     750.000    
 BOUNDARY    127   LAYER   1   ROW     9   COL     7   RATE     750.000    
 BOUNDARY    128   LAYER   1   ROW     9   COL     8   RATE     750.000    
 BOUNDARY    129   LAYER   1   ROW     9   COL     9   RATE     750.000    
 BOUNDARY    130   LAYER   1   ROW     9   COL    10   RATE     750.000    
 BOUNDARY    131   LAYER   1   ROW     9   COL    11   RATE     750.000    
 BOUNDARY    132   LAYER   1   ROW     9   COL    12   RATE     750.000    
 BOUNDARY    133   LAYER   1   ROW     9   COL    13   RATE     750.000    
 BOUNDARY    134   LAYER   1   ROW     9   COL    14   RATE     750.000    
 BOUNDARY    135   LAYER   2   ROW     9   COL    15   RATE     750.000    
 BOUNDARY    137   LAYER   1   ROW    10   COL     2   RATE     750.000    
 BOUNDARY    138   LAYER   1   ROW    10   COL     3   RATE     750.000    
 BOUNDARY    139   LAYER   1   ROW    10   COL     4   RATE     750.000    
 BOUNDARY    140   LAYER   1   ROW    10   COL     5   RATE     750.000    
 BOUNDARY    141   LAYER   1   ROW    10   COL     6   RATE     750.000    
 BOUNDARY    142   LAYER   1   ROW    10   COL     7   RATE     750.000    
 BOUNDARY    143   LAYER   1   ROW    10   COL     8   RATE     750.000    
 BOUNDARY    144   LAYER   1   ROW    10   COL     9   RATE     750.000    
 BOUNDARY    145   LAYER   1   ROW    10   COL    10   RATE     750.000    
 BOUNDARY    146   LAYER   1   ROW    10   COL    11   RATE     750.000    
 BOUNDARY    147   LAYER   1   ROW    10   COL    12   RATE     750.000    
 BOUNDARY    148   LAYER   1   ROW    10   COL    13   RATE     750.000    
 BOUNDARY    149   LAYER   1   ROW    10   COL    14   RATE     750.000    
 BOUNDARY    150   LAYER   2   ROW    10   COL    15   RATE     750.000    
 UBDSV4 SAVING CONSTANT HEADS   ON UNIT   1017 AT TIME STEP      7, STRESS PERIOD      2

 CONSTANT HEADS     PERIOD  2   STEP  7
 BOUNDARY      1   LAYER   1   ROW     1   COL     1   RATE    -1692.80      CHD-1
 BOUNDARY      2   LAYER   1   ROW     4   COL     1   RATE     2399.01    
 BOUNDARY      3   LAYER   1   ROW     5   COL     1   RATE    -2393.74      CHD_GP
 BOUNDARY      4   LAYER   1   ROW     6   COL     1   RATE     1595.26      CHD_GP
 BOUNDARY      5   LAYER   1   ROW    10   COL     1   RATE    -4269.61      CHD-10
1
  HEAD             IN LAYER   1 AT END OF TIME STEP   7 IN STRESS PERIOD    2
  ---------------------------------------------------------------------------

           1       2       3       4       5       6       7       8       9      10      11      12      13      14      15
 ...........................................................................................................................
   1   120.00  127.81  134.49  139.79  143.78  146.50  148.01  148.39  147.67  145.90  143.12  139.51  135.49  132.20  777.77
   2   117.64  126.48  133.97  139.54  143.70  146.48  148.02  148.40  147.68  145.91  143.13  139.51  135.50  132.20  777.77
   3   101.00  123.72  133.33  139.07  143.62  146.49  148.04  148.42  147.70  145.92  143.14  139.52  135.50  132.21  777.77
   4   120.00  127.11  134.20  139.67  143.81  146.57  148.09  148.46  147.73  145.95  143.16  139.54  135.52  132.22  777.77
   5   120.00  127.96  134.69  140.01  143.99  146.68  148.16  148.51  147.77  145.98  143.18  139.56  135.53  132.24  777.77
   6   120.00  127.58  134.68  140.12  144.11  146.78  148.24  148.57  147.81  146.01  143.21  139.58  135.55  132.25  777.77
   7   104.18  125.16  134.37  140.11  144.20  146.88  148.32  148.63  147.86  146.04  143.23  139.60  135.57  132.27  777.77
   8   120.69  128.46  135.24  140.14  144.32  146.98  148.40  148.69  147.90  146.07  143.26  139.62  135.58  132.28  777.77
   9   124.45  130.19  136.09  140.87  144.60  147.12  148.47  148.73  147.93  146.09  143.27  139.63  135.60  132.29  777.77
  10   120.00  129.69  136.24  141.12  144.75  147.19  148.51  148.76  147.95  146.11  143.28  139.64  135.60  132.30  777.77
1
  HEAD             IN LAYER   2 AT END OF TIME STEP   7 IN STRESS PERIOD    2
  ---------------------------------------------------------------------------

           1       2       3       4       5       6       7       8       9      10      11      12      13      14      15
 ...........................................................................................................................
   1   121.62  123.06  123.54  124.06  131.75  138.78  142.91  144.30  143.35  140.06  133.76  122.76  103.38   67.95    0.41
   2   119.54  119.96  116.02  106.95  124.48  136.36  142.19  144.11  143.30  140.05  133.76  122.76  103.38   67.95    0.41
   3   116.51  116.21  102.65   44.90  111.35  133.42  141.52  143.96  143.28  140.05  133.77  122.77  103.39   67.96    0.41
   4   120.00  120.21  116.17  107.07  124.58  136.45  142.27  144.17  143.35  140.09  133.79  122.79  103.40   67.96    0.41
   5   121.78  123.25  123.75  124.27  131.94  138.95  143.06  144.43  143.45  140.13  133.82  122.80  103.41   67.97    0.41
   6   121.53  123.21  123.83  124.35  132.03  139.04  143.13  144.48  143.49  140.16  133.84  122.82  103.43   67.98    0.41
   7   118.90  120.34  116.56  107.29  124.84  136.69  142.47  144.33  143.48  140.18  133.86  122.84  103.44   67.99    0.41
   8   120.69  118.54  103.85   44.95  111.75  133.83  141.85  144.21  143.47  140.20  133.88  122.86  103.45   68.00    0.41
   9   123.10  122.53  117.69  107.91  125.21  136.92  142.63  144.43  143.55  140.23  133.90  122.87  103.46   68.00    0.41
  10   123.91  125.21  125.23  125.27  132.63  139.44  143.41  144.67  143.62  140.26  133.92  122.88  103.47   68.00    0.41

 HEAD WILL BE SAVED ON UNIT 1018 AT END OF TIME STEP    7, STRESS PERIOD    2
1
  VOLUME BUDGET FOR ENTIRE MODEL AT END OF TIME STEP    7, STRESS PERIOD   2
  ------------------------------------------------------------------------------

     CUMULATIVE VOLUME      L**3       RATES FOR THIS TIME STEP      L**3/T
     ------------------                 ------------------------

           IN:                                      IN:
           ---                                      ---
         STORAGE(SS) =       95627.9225           STORAGE(SS) =        6043.9726
         STORAGE(SY) =      323913.2384           STORAGE(SY) =       50199.7898
    WELLS NEAR RIVER =           0.0000      WELLS NEAR RIVER =           0.0000
               RIVER =           0.0000                 RIVER =           0.0000
           GHB LAKES =      652418.6883             GHB LAKES =       81539.5766
            RECHARGE =      833750.0000              RECHARGE =      108750.0000
      CONSTANT HEADS =       72049.6637        CONSTANT HEADS =        8999.8296

            TOTAL IN =     1977759.5130              TOTAL IN =      255533.1687

          OUT:                                     OUT:
          ----                                     ----
         STORAGE(SS) =         107.5620           STORAGE(SS) =          12.7825
         STORAGE(SY) =      169633.3900           STORAGE(SY) =       20201.7064
    WELLS NEAR RIVER =      490000.0000      WELLS NEAR RIVER =       70000.0000
               RIVER =      322490.4811                 RIVER =       41085.5289
           GHB LAKES =      886816.0556             GHB LAKES =      110871.4406
            RECHARGE =           0.0000              RECHARGE =           0.0000
      CONSTANT HEADS =      108712.0305        CONSTANT HEADS =       13361.7102

           TOTAL OUT =     1977759.5192             TOTAL OUT =      255533.1687

            IN - OUT =      -6.2290E-03              IN - OUT =      -3.0340E-06

 PERCENT DISCREPANCY =          -0.00     PERCENT DISCREPANCY =          -0.00






         TIME SUMMARY AT END OF TIME STEP    7 IN STRESS PERIOD    2
                    SECONDS     MINUTES      HOURS       DAYS        YEARS
                    -----------------------------------------------------------
   TIME STEP LENGTH  86400.      1440.0      24.000     1.00000     2.73785E-03
 STRESS PERIOD TIME 6.04800E+05  10080.      168.00      7.0000     1.91650E-02
         TOTAL TIME 6.91200E+05  11520.      192.00      8.0000     2.19028E-02

 OUTPUT CONTROL FOR STRESS PERIOD    2   TIME STEP    8
    PRINT BUDGET
    PRINT HEAD
    PRINT HEAD FOR ALL LAYERS
    SAVE BUDGET
    SAVE HEAD
    SAVE HEAD FOR ALL LAYERS
 UBDSV1 SAVING      STORAGE(SS) ON UNIT   1017 AT TIME STEP      8, STRESS PERIOD      2
 UBDSV1 SAVING      STORAGE(SY) ON UNIT   1017 AT TIME STEP      8, STRESS PERIOD      2
 UBDSV1 SAVING FLOW RIGHT FACE  ON UNIT   1017 AT TIME STEP      8, STRESS PERIOD      2
 UBDSV1 SAVING FLOW FRONT FACE  ON UNIT   1017 AT TIME STEP      8, STRESS PERIOD      2
 UBDSV1 SAVING FLOW LOWER FACE  ON UNIT   1017 AT TIME STEP      8, STRESS PERIOD      2
 UBDSV4 SAVING WELLS NEAR RIVER ON UNIT   1017 AT TIME STEP      8, STRESS PERIOD      2

 WELLS NEAR RIVER   PERIOD  2   STEP  8
 BOUNDARY      1   LAYER   2   ROW     3   COL     4   RATE    -35000.0    
 BOUNDARY      2   LAYER   2   ROW     8   COL     4   RATE    -35000.0    
 UBDSV4 SAVING RIVER            ON UNIT   1017 AT TIME STEP      8, STRESS PERIOD      2

 RIVER              PERIOD  2   STEP  8
 BOUNDARY      1   LAYER   2   ROW     1   COL    15   RATE    -4113.33    
 BOUNDARY      2   LAYER   2   ROW     2   COL    15   RATE    -4113.45      RIV2
 BOUNDARY      3   LAYER   2   ROW     3   COL    15   RATE    -4113.68      RIV3
 BOUNDARY      4   LAYER   2   ROW     4   COL    15   RATE    -4114.01    
 BOUNDARY      5   LAYER   2   ROW     5   COL    15   RATE    -4114.41    
 BOUNDARY      6   LAYER   2   ROW     6   COL    15   RATE    -4114.83    
 BOUNDARY      7   LAYER   2   ROW     7   COL    15   RATE    -4115.23      RIVX
 BOUNDARY      8   LAYER   2   ROW     8   COL    15   RATE    -4115.59      RIVX
 BOUNDARY      9   LAYER   2   ROW     9   COL    15   RATE    -4115.85      RIVX
 BOUNDARY     10   LAYER   2   ROW    10   COL    15   RATE    -4115.99    

 GHB LAKES          PERIOD  2   STEP  8
 BOUNDARY      1   LAYER   1   ROW     3   COL     1   RATE    -14980.1    
 BOUNDARY      2   LAYER   1   ROW     7   COL     1   RATE     81548.7      GHB2_UPPER
 BOUNDARY      3   LAYER   1   ROW     7   COL     1   RATE    -95875.5      GHB2_LOWER
 UBDSV4 SAVING RECHARGE         ON UNIT   1017 AT TIME STEP      8, STRESS PERIOD      2

 RECHARGE           PERIOD  2   STEP  8
 BOUNDARY      2   LAYER   1   ROW     1   COL     2   RATE     750.000    
 BOUNDARY      3   LAYER   1   ROW     1   COL     3   RATE     750.000    
 BOUNDARY      4   LAYER   1   ROW     1   COL     4   RATE     750.000    
 BOUNDARY      5   LAYER   1   ROW     1   COL     5   RATE     750.000    
 BOUNDARY      6   LAYER   1   ROW     1   COL     6   RATE     750.000    
 BOUNDARY      7   LAYER   1   ROW     1   COL     7   RATE     750.000    
 BOUNDARY      8   LAYER   1   ROW     1   COL     8   RATE     750.000    
 BOUNDARY      9   LAYER   1   ROW     1   COL     9   RATE     750.000    
 BOUNDARY     10   LAYER   1   ROW     1   COL    10   RATE     750.000    
 BOUNDARY     11   LAYER   1   ROW     1   COL    11   RATE     750.000    
 BOUNDARY     12   LAYER   1   ROW     1   COL    12   RATE     750.000    
 BOUNDARY     13   LAYER   1   ROW     1   COL    13   RATE     750.000    
 BOUNDARY     14   LAYER   1   ROW     1   COL    14   RATE     750.000    
 BOUNDARY     15   LAYER   2   ROW     1   COL    15   RATE     750.000    
 BOUNDARY     16   LAYER   1   ROW     2   COL     1   RATE     750.000    
 BOUNDARY     17   LAYER   1   ROW     2   COL     2   RATE     750.000    
 BOUNDARY     18   LAYER   1   ROW     2   COL     3   RATE     750.000    
 BOUNDARY     19   LAYER   1   ROW     2   COL     4   RATE     750.000    
 BOUNDARY     20   LAYER   1   ROW     2   COL     5   RATE     750.000    
 BOUNDARY     21   LAYER   1   ROW     2   COL     6   RATE     750.000    
 BOUNDARY     22   LAYER   1   ROW     2   COL     7   RATE     750.000    
 BOUNDARY     23   LAYER   1   ROW     2   COL     8   RATE     750.000    
 BOUNDARY     24   LAYER   1   ROW     2   COL     9   RATE     750.000    
 BOUNDARY     25   LAYER   1   ROW     2   COL    10   RATE     750.000    
 BOUNDARY     26   LAYER   1   ROW     2   COL    11   RATE     750.000    
 BOUNDARY     27   LAYER   1   ROW     2   COL    12   RATE     750.000    
 BOUNDARY     28   LAYER   1   ROW     2   COL    13   RATE     750.000    
 BOUNDARY     29   LAYER   1   ROW     2   COL    14   RATE     750.000    
 BOUNDARY     30   LAYER   2   ROW     2   COL    15   RATE     750.000    
 BOUNDARY     31   LAYER   1   ROW     3   COL     1   RATE     750.000    
 BOUNDARY     32   LAYER   1   ROW     3   COL     2   RATE     750.000    
 BOUNDARY     33   LAYER   1   ROW     3   COL     3   RATE     750.000    
 BOUNDARY     34   LAYER   1   ROW     3   COL     4   RATE     750.000    
 BOUNDARY     35   LAYER   1   ROW     3   COL     5   RATE     750.000    
 BOUNDARY     36   LAYER   1   ROW     3   COL     6   RATE     750.000    
 BOUNDARY     37   LAYER   1   ROW     3   COL     7   RATE     750.000    
 BOUNDARY     38   LAYER   1   ROW     3   COL     8   RATE     750.000    
 BOUNDARY     39   LAYER   1   ROW     3   COL     9   RATE     750.000    
 BOUNDARY     40   LAYER   1   ROW     3   COL    10   RATE     750.000    
 BOUNDARY     41   LAYER   1   ROW     3   COL    11   RATE     750.000    
 BOUNDARY     42   LAYER   1   ROW     3   COL    12   RATE     750.000    
 BOUNDARY     43   LAYER   1   ROW     3   COL    13   RATE     750.000    
 BOUNDARY     44   LAYER   1   ROW     3   COL    14   RATE     750.000    
 BOUNDARY     45   LAYER   2   ROW     3   COL    15   RATE     750.000    
 BOUNDARY     47   LAYER   1   ROW     4   COL     2   RATE     750.000    
 BOUNDARY     48   LAYER   1   ROW     4   COL     3   RATE     750.000    
 BOUNDARY     49   LAYER   1   ROW     4   COL     4   RATE     750.000    
 BOUNDARY     50   LAYER   1   ROW     4   COL     5   RATE     750.000    
 BOUNDARY     51   LAYER   1   ROW     4   COL     6   RATE     750.000    
 BOUNDARY     52   LAYER   1   ROW     4   COL     7   RATE     750.000    
 BOUNDARY     53   LAYER   1   ROW     4   COL     8   RATE     750.000    
 BOUNDARY     54   LAYER   1   ROW     4   COL     9   RATE     750.000    
 BOUNDARY     55   LAYER   1   ROW     4   COL    10   RATE     750.000    
 BOUNDARY     56   LAYER   1   ROW     4   COL    11   RATE     750.000    
 BOUNDARY     57   LAYER   1   ROW     4   COL    12   RATE     750.000    
 BOUNDARY     58   LAYER   1   ROW     4   COL    13   RATE     750.000    
 BOUNDARY     59   LAYER   1   ROW     4   COL    14   RATE     750.000    
 BOUNDARY     60   LAYER   2   ROW     4   COL    15   RATE     750.000    
 BOUNDARY     62   LAYER   1   ROW     5   COL     2   RATE     750.000    
 BOUNDARY     63   LAYER   1   ROW     5   COL     3   RATE     750.000    
 BOUNDARY     64   LAYER   1   ROW     5   COL     4   RATE     750.000    
 BOUNDARY     65   LAYER   1   ROW     5   COL     5   RATE     750.000    
 BOUNDARY     66   LAYER   1   ROW     5   COL     6   RATE     750.000    
 BOUNDARY     67   LAYER   1   ROW     5   COL     7   RATE     750.000    
 BOUNDARY     68   LAYER   1   ROW     5   COL     8   RATE     750.000    
 BOUNDARY     69   LAYER   1   ROW     5   COL     9   RATE     750.000    
 BOUNDARY     70   LAYER   1   ROW     5   COL    10   RATE     750.000    
 BOUNDARY     71   LAYER   1   ROW     5   COL    11   RATE     750.000    
 BOUNDARY     72   LAYER   1   ROW     5   COL    12   RATE     750.000    
 BOUNDARY     73   LAYER   1   ROW     5   COL    13   RATE     750.000    
 BOUNDARY     74   LAYER   1   ROW     5   COL    14   RATE     750.000    
 BOUNDARY     75   LAYER   2   ROW     5   COL    15   RATE     750.000    
 BOUNDARY     77   LAYER   1   ROW     6   COL     2   RATE     750.000    
 BOUNDARY     78   LAYER   1   ROW     6   COL     3   RATE     750.000    
 BOUNDARY     79   LAYER   1   ROW     6   COL     4   RATE     750.000    
 BOUNDARY     80   LAYER   1   ROW     6   COL     5   RATE     750.000    
 BOUNDARY     81   LAYER   1   ROW     6   COL     6   RATE     750.000    
 BOUNDARY     82   LAYER   1   ROW     6   COL     7   RATE     750.000    
 BOUNDARY     83   LAYER   1   ROW     6   COL     8   RATE     750.000    
 BOUNDARY     84   LAYER   1   ROW     6   COL     9   RATE     750.000    
 BOUNDARY     85   LAYER   1   ROW     6   COL    10   RATE     750.000    
 BOUNDARY     86   LAYER   1   ROW     6   COL    11   RATE     750.000    
 BOUNDARY     87   LAYER   1   ROW     6   COL    12   RATE     750.000    
 BOUNDARY     88   LAYER   1   ROW     6   COL    13   RATE     750.000    
 BOUNDARY     89   LAYER   1   ROW     6   COL    14   RATE     750.000    
 BOUNDARY     90   LAYER   2   ROW     6   COL    15   RATE     750.000    
 BOUNDARY     91   LAYER   1   ROW     7   COL     1   RATE     750.000    
 BOUNDARY     92   LAYER   1   ROW     7   COL     2   RATE     750.000    
 BOUNDARY     93   LAYER   1   ROW     7   COL     3   RATE     750.000    
 BOUNDARY     94   LAYER   1   ROW     7   COL     4   RATE     750.000    
 BOUNDARY     95   LAYER   1   ROW     7   COL     5   RATE     750.000    
 BOUNDARY     96   LAYER   1   ROW     7   COL     6   RATE     750.000    
 BOUNDARY     97   LAYER   1   ROW     7   COL     7   RATE     750.000    
 BOUNDARY     98   LAYER   1   ROW     7   COL     8   RATE     750.000    
 BOUNDARY     99   LAYER   1   ROW     7   COL     9   RATE     750.000    
 BOUNDARY    100   LAYER   1   ROW     7   COL    10   RATE     750.000    
 BOUNDARY    101   LAYER   1   ROW     7   COL    11   RATE     750.000    
 BOUNDARY    102   LAYER   1   ROW     7   COL    12   RATE     750.000    
 BOUNDARY    103   LAYER   1   ROW     7   COL    13   RATE     750.000    
 BOUNDARY    104   LAYER   1   ROW     7   COL    14   RATE     750.000    
 BOUNDARY    105   LAYER   2   ROW     7   COL    15   RATE     750.000    
 BOUNDARY    106   LAYER   1   ROW     8   COL     1   RATE     750.000    
 BOUNDARY    107   LAYER   1   ROW     8   COL     2   RATE     750.000    
 BOUNDARY    108   LAYER   1   ROW     8   COL     3   RATE     750.000    
 BOUNDARY    109   LAYER   1   ROW     8   COL     4   RATE     750.000    
 BOUNDARY    110   LAYER   1   ROW     8   COL     5   RATE     750.000    
 BOUNDARY    111   LAYER   1   ROW     8   COL     6   RATE     750.000    
 BOUNDARY    112   LAYER   1   ROW     8   COL     7   RATE     750.000    
 BOUNDARY    113   LAYER   1   ROW     8   COL     8   RATE     750.000    
 BOUNDARY    114   LAYER   1   ROW     8   COL     9   RATE     750.000    
 BOUNDARY    115   LAYER   1   ROW     8   COL    10   RATE     750.000    
 BOUNDARY    116   LAYER   1   ROW     8   COL    11   RATE     750.000    
 BOUNDARY    117   LAYER   1   ROW     8   COL    12   RATE     750.000    
 BOUNDARY    118   LAYER   1   ROW     8   COL    13   RATE     750.000    
 BOUNDARY    119   LAYER   1   ROW     8   COL    14   RATE     750.000    
 BOUNDARY    120   LAYER   2   ROW     8   COL    15   RATE     750.000    
 BOUNDARY    121   LAYER   1   ROW     9   COL     1   RATE     750.000    
 BOUNDARY    122   LAYER   1   ROW     9   COL     2   RATE     750.000    
 BOUNDARY    123   LAYER   1   ROW     9   COL     3   RATE     750.000    
 BOUNDARY    124   LAYER   1   ROW     9   COL     4   RATE     750.000    
 BOUNDARY    125   LAYER   1   ROW     9   COL     5   RATE     750.000    
 BOUNDARY    126   LAYER   1   ROW     9   COL     6   RATE     750.000    
 BOUNDARY    127   LAYER   1   ROW     9   COL     7   RATE     750.000    
 BOUNDARY    128   LAYER   1   ROW     9   COL     8   RATE     750.000    
 BOUNDARY    129   LAYER   1   ROW     9   COL     9   RATE     750.000    
 BOUNDARY    130   LAYER   1   ROW     9   COL    10   RATE     750.000    
 BOUNDARY    131   LAYER   1   ROW     9   COL    11   RATE     750.000    
 BOUNDARY    132   LAYER   1   ROW     9   COL    12   RATE     750.000    
 BOUNDARY    133   LAYER   1   ROW     9   COL    13   RATE     750.000    
 BOUNDARY    134   LAYER   1   ROW     9   COL    14   RATE     750.000    
 BOUNDARY    135   LAYER   2   ROW     9   COL    15   RATE     750.000    
 BOUNDARY    137   LAYER   1   ROW    10   COL     2   RATE     750.000    
 BOUNDARY    138   LAYER   1   ROW    10   COL     3   RATE     750.000    
 BOUNDARY    139   LAYER   1   ROW    10   COL     4   RATE     750.000    
 BOUNDARY    140   LAYER   1   ROW    10   COL     5   RATE     750.000    
 BOUNDARY    141   LAYER   1   ROW    10   COL     6   RATE     750.000    
 BOUNDARY    142   LAYER   1   ROW    10   COL     7   RATE     750.000    
 BOUNDARY    143   LAYER   1   ROW    10   COL     8   RATE     750.000    
 BOUNDARY    144   LAYER   1   ROW    10   COL     9   RATE     750.000    
 BOUNDARY    145   LAYER   1   ROW    10   COL    10   RATE     750.000    
 BOUNDARY    146   LAYER   1   ROW    10   COL    11   RATE     750.000    
 BOUNDARY    147   LAYER   1   ROW    10   COL    12   RATE     750.000    
 BOUNDARY    148   LAYER   1   ROW    10   COL    13   RATE     750.000    
 BOUNDARY    149   LAYER   1   ROW    10   COL    14   RATE     750.000    
 BOUNDARY    150   LAYER   2   ROW    10   COL    15   RATE     750.000    
 UBDSV4 SAVING CONSTANT HEADS   ON UNIT   1017 AT TIME STEP      8, STRESS PERIOD      2

 CONSTANT HEADS     PERIOD  2   STEP  8
 BOUNDARY      1   LAYER   1   ROW     1   COL     1   RATE    -1681.67      CHD-1
 BOUNDARY      2   LAYER   1   ROW     4   COL     1   RATE     2412.56    
 BOUNDARY      3   LAYER   1   ROW     5   COL     1   RATE    -2381.46      CHD_GP
 BOUNDARY      4   LAYER   1   ROW     6   COL     1   RATE     1607.71      CHD_GP
 BOUNDARY      5   LAYER   1   ROW    10   COL     1   RATE    -4258.51      CHD-10
1
  HEAD             IN LAYER   1 AT END OF TIME STEP   8 IN STRESS PERIOD    2
  ---------------------------------------------------------------------------

           1       2       3       4       5       6       7       8       9      10      11      12      13      14      15
 ...........................................................................................................................
   1   120.00  127.81  134.49  139.79  143.78  146.50  148.02  148.40  147.68  145.91  143.13  139.52  135.50  132.21  777.77
   2   117.65  126.48  133.96  139.51  143.69  146.48  148.02  148.41  147.69  145.92  143.14  139.52  135.51  132.21  777.77
   3   101.00  123.71  133.30  139.01  143.59  146.49  148.05  148.43  147.71  145.93  143.15  139.53  135.51  132.22  777.77
   4   120.00  127.11  134.19  139.65  143.80  146.58  148.10  148.47  147.74  145.96  143.17  139.55  135.53  132.23  777.77
   5   120.00  127.96  134.69  140.01  143.99  146.68  148.17  148.52  147.78  145.99  143.19  139.57  135.54  132.25  777.77
   6   120.00  127.59  134.68  140.12  144.11  146.78  148.25  148.58  147.82  146.02  143.22  139.59  135.56  132.26  777.77
   7   104.18  125.16  134.36  140.09  144.19  146.88  148.32  148.64  147.87  146.05  143.24  139.61  135.58  132.28  777.77
   8   120.69  128.46  135.22  140.08  144.30  146.98  148.40  148.69  147.91  146.08  143.27  139.63  135.59  132.29  777.77
   9   124.45  130.19  136.08  140.85  144.59  147.12  148.48  148.74  147.94  146.10  143.28  139.64  135.61  132.30  777.77
  10   120.00  129.69  136.24  141.12  144.74  147.19  148.52  148.77  147.96  146.12  143.29  139.65  135.61  132.31  777.77
1
  HEAD             IN LAYER   2 AT END OF TIME STEP   8 IN STRESS PERIOD    2
  ---------------------------------------------------------------------------

           1       2       3       4       5       6       7       8       9      10      11      12      13      14      15
 ...........................................................................................................................
   1   121.09  122.47  122.86  123.36  131.11  138.28  142.59  144.12  143.26  140.02  133.75  122.76  103.38   67.96    0.41
   2   119.01  119.35  115.34  106.24  123.84  135.85  141.85  143.91  143.21  140.01  133.75  122.76  103.39   67.96    0.41
   3   115.96  115.60  101.96   44.10  110.70  132.91  141.18  143.76  143.19  140.02  133.76  122.77  103.39   67.96    0.41
   4   119.46  119.60  115.49  106.36  123.94  135.94  141.93  143.98  143.26  140.05  133.78  122.79  103.40   67.97    0.41
   5   121.25  122.65  123.07  123.56  131.30  138.45  142.73  144.24  143.36  140.10  133.81  122.80  103.42   67.98    0.41
   6   121.00  122.61  123.14  123.64  131.39  138.53  142.80  144.29  143.40  140.13  133.83  122.82  103.43   67.99    0.41
   7   118.36  119.73  115.87  106.58  124.19  136.18  142.13  144.14  143.38  140.14  133.85  122.84  103.44   67.99    0.41
   8   120.15  117.92  103.16   44.15  111.09  133.31  141.51  144.02  143.38  140.16  133.87  122.86  103.46   68.00    0.41
   9   122.56  121.92  117.00  107.20  124.56  136.41  142.29  144.24  143.46  140.20  133.89  122.87  103.47   68.01    0.41
  10   123.38  124.61  124.54  124.56  131.99  138.93  143.07  144.48  143.53  140.22  133.90  122.88  103.47   68.01    0.41

 HEAD WILL BE SAVED ON UNIT 1018 AT END OF TIME STEP    8, STRESS PERIOD    2
1
  VOLUME BUDGET FOR ENTIRE MODEL AT END OF TIME STEP    8, STRESS PERIOD   2
  ------------------------------------------------------------------------------

     CUMULATIVE VOLUME      L**3       RATES FOR THIS TIME STEP      L**3/T
     ------------------                 ------------------------

           IN:                                      IN:
           ---                                      ---
         STORAGE(SS) =      100653.5350           STORAGE(SS) =        5025.6125
         STORAGE(SY) =      374533.5046           STORAGE(SY) =       50620.2662
    WELLS NEAR RIVER =           0.0000      WELLS NEAR RIVER =           0.0000
               RIVER =           0.0000                 RIVER =           0.0000
           GHB LAKES =      733967.3915             GHB LAKES =       81548.7031
            RECHARGE =      942500.0000              RECHARGE =      108750.0000
      CONSTANT HEADS =       81062.1587        CONSTANT HEADS =        9012.4950

            TOTAL IN =     2232716.5898              TOTAL IN =      254957.0768

          OUT:                                     OUT:
          ----                                     ----
         STORAGE(SS) =         118.1221           STORAGE(SS) =          10.5601
         STORAGE(SY) =      189264.1191           STORAGE(SY) =       19630.7291
    WELLS NEAR RIVER =      560000.0000      WELLS NEAR RIVER =       70000.0000
               RIVER =      363636.8512                 RIVER =       41146.3701
           GHB LAKES =      997671.6065             GHB LAKES =      110855.5509
            RECHARGE =           0.0000              RECHARGE =           0.0000
      CONSTANT HEADS =      122025.8971        CONSTANT HEADS =       13313.8666

           TOTAL OUT =     2232716.5960             TOTAL OUT =      254957.0768

            IN - OUT =      -6.2295E-03              IN - OUT =      -5.6086E-07

 PERCENT DISCREPANCY =          -0.00     PERCENT DISCREPANCY =          -0.00






         TIME SUMMARY AT END OF TIME STEP    8 IN STRESS PERIOD    2
                    SECONDS     MINUTES      HOURS       DAYS        YEARS
                    -----------------------------------------------------------
   TIME STEP LENGTH  86400.      1440.0      24.000     1.00000     2.73785E-03
 STRESS PERIOD TIME 6.91200E+05  11520.      192.00      8.0000     2.19028E-02
         TOTAL TIME 7.77600E+05  12960.      216.00      9.0000     2.46407E-02

 OUTPUT CONTROL FOR STRESS PERIOD    2   TIME STEP    9
    PRINT BUDGET
    PRINT HEAD
    PRINT HEAD FOR ALL LAYERS
    SAVE BUDGET
    SAVE HEAD
    SAVE HEAD FOR ALL LAYERS
 UBDSV1 SAVING      STORAGE(SS) ON UNIT   1017 AT TIME STEP      9, STRESS PERIOD      2
 UBDSV1 SAVING      STORAGE(SY) ON UNIT   1017 AT TIME STEP      9, STRESS PERIOD      2
 UBDSV1 SAVING FLOW RIGHT FACE  ON UNIT   1017 AT TIME STEP      9, STRESS PERIOD      2
 UBDSV1 SAVING FLOW FRONT FACE  ON UNIT   1017 AT TIME STEP      9, STRESS PERIOD      2
 UBDSV1 SAVING FLOW LOWER FACE  ON UNIT   1017 AT TIME STEP      9, STRESS PERIOD      2
 UBDSV4 SAVING WELLS NEAR RIVER ON UNIT   1017 AT TIME STEP      9, STRESS PERIOD      2

 WELLS NEAR RIVER   PERIOD  2   STEP  9
 BOUNDARY      1   LAYER   2   ROW     3   COL     4   RATE    -35000.0    
 BOUNDARY      2   LAYER   2   ROW     8   COL     4   RATE    -35000.0    
 UBDSV4 SAVING RIVER            ON UNIT   1017 AT TIME STEP      9, STRESS PERIOD      2

 RIVER              PERIOD  2   STEP  9
 BOUNDARY      1   LAYER   2   ROW     1   COL    15   RATE    -4117.61    
 BOUNDARY      2   LAYER   2   ROW     2   COL    15   RATE    -4117.73      RIV2
 BOUNDARY      3   LAYER   2   ROW     3   COL    15   RATE    -4117.96      RIV3
 BOUNDARY      4   LAYER   2   ROW     4   COL    15   RATE    -4118.29    
 BOUNDARY      5   LAYER   2   ROW     5   COL    15   RATE    -4118.69    
 BOUNDARY      6   LAYER   2   ROW     6   COL    15   RATE    -4119.11    
 BOUNDARY      7   LAYER   2   ROW     7   COL    15   RATE    -4119.51      RIVX
 BOUNDARY      8   LAYER   2   ROW     8   COL    15   RATE    -4119.87      RIVX
 BOUNDARY      9   LAYER   2   ROW     9   COL    15   RATE    -4120.13      RIVX
 BOUNDARY     10   LAYER   2   ROW    10   COL    15   RATE    -4120.27    

 GHB LAKES          PERIOD  2   STEP  9
 BOUNDARY      1   LAYER   1   ROW     3   COL     1   RATE    -14967.9    
 BOUNDARY      2   LAYER   1   ROW     7   COL     1   RATE     81557.3      GHB2_UPPER
 BOUNDARY      3   LAYER   1   ROW     7   COL     1   RATE    -95872.4      GHB2_LOWER
 UBDSV4 SAVING RECHARGE         ON UNIT   1017 AT TIME STEP      9, STRESS PERIOD      2

 RECHARGE           PERIOD  2   STEP  9
 BOUNDARY      2   LAYER   1   ROW     1   COL     2   RATE     750.000    
 BOUNDARY      3   LAYER   1   ROW     1   COL     3   RATE     750.000    
 BOUNDARY      4   LAYER   1   ROW     1   COL     4   RATE     750.000    
 BOUNDARY      5   LAYER   1   ROW     1   COL     5   RATE     750.000    
 BOUNDARY      6   LAYER   1   ROW     1   COL     6   RATE     750.000    
 BOUNDARY      7   LAYER   1   ROW     1   COL     7   RATE     750.000    
 BOUNDARY      8   LAYER   1   ROW     1   COL     8   RATE     750.000    
 BOUNDARY      9   LAYER   1   ROW     1   COL     9   RATE     750.000    
 BOUNDARY     10   LAYER   1   ROW     1   COL    10   RATE     750.000    
 BOUNDARY     11   LAYER   1   ROW     1   COL    11   RATE     750.000    
 BOUNDARY     12   LAYER   1   ROW     1   COL    12   RATE     750.000    
 BOUNDARY     13   LAYER   1   ROW     1   COL    13   RATE     750.000    
 BOUNDARY     14   LAYER   1   ROW     1   COL    14   RATE     750.000    
 BOUNDARY     15   LAYER   2   ROW     1   COL    15   RATE     750.000    
 BOUNDARY     16   LAYER   1   ROW     2   COL     1   RATE     750.000    
 BOUNDARY     17   LAYER   1   ROW     2   COL     2   RATE     750.000    
 BOUNDARY     18   LAYER   1   ROW     2   COL     3   RATE     750.000    
 BOUNDARY     19   LAYER   1   ROW     2   COL     4   RATE     750.000    
 BOUNDARY     20   LAYER   1   ROW     2   COL     5   RATE     750.000    
 BOUNDARY     21   LAYER   1   ROW     2   COL     6   RATE     750.000    
 BOUNDARY     22   LAYER   1   ROW     2   COL     7   RATE     750.000    
 BOUNDARY     23   LAYER   1   ROW     2   COL     8   RATE     750.000    
 BOUNDARY     24   LAYER   1   ROW     2   COL     9   RATE     750.000    
 BOUNDARY     25   LAYER   1   ROW     2   COL    10   RATE     750.000    
 BOUNDARY     26   LAYER   1   ROW     2   COL    11   RATE     750.000    
 BOUNDARY     27   LAYER   1   ROW     2   COL    12   RATE     750.000    
 BOUNDARY     28   LAYER   1   ROW     2   COL    13   RATE     750.000    
 BOUNDARY     29   LAYER   1   ROW     2   COL    14   RATE     750.000    
 BOUNDARY     30   LAYER   2   ROW     2   COL    15   RATE     750.000    
 BOUNDARY     31   LAYER   1   ROW     3   COL     1   RATE     750.000    
 BOUNDARY     32   LAYER   1   ROW     3   COL     2   RATE     750.000    
 BOUNDARY     33   LAYER   1   ROW     3   COL     3   RATE     750.000    
 BOUNDARY     34   LAYER   1   ROW     3   COL     4   RATE     750.000    
 BOUNDARY     35   LAYER   1   ROW     3   COL     5   RATE     750.000    
 BOUNDARY     36   LAYER   1   ROW     3   COL     6   RATE     750.000    
 BOUNDARY     37   LAYER   1   ROW     3   COL     7   RATE     750.000    
 BOUNDARY     38   LAYER   1   ROW     3   COL     8   RATE     750.000    
 BOUNDARY     39   LAYER   1   ROW     3   COL     9   RATE     750.000    
 BOUNDARY     40   LAYER   1   ROW     3   COL    10   RATE     750.000    
 BOUNDARY     41   LAYER   1   ROW     3   COL    11   RATE     750.000    
 BOUNDARY     42   LAYER   1   ROW     3   COL    12   RATE     750.000    
 BOUNDARY     43   LAYER   1   ROW     3   COL    13   RATE     750.000    
 BOUNDARY     44   LAYER   1   ROW     3   COL    14   RATE     750.000    
 BOUNDARY     45   LAYER   2   ROW     3   COL    15   RATE     750.000    
 BOUNDARY     47   LAYER   1   ROW     4   COL     2   RATE     750.000    
 BOUNDARY     48   LAYER   1   ROW     4   COL     3   RATE     750.000    
 BOUNDARY     49   LAYER   1   ROW     4   COL     4   RATE     750.000    
 BOUNDARY     50   LAYER   1   ROW     4   COL     5   RATE     750.000    
 BOUNDARY     51   LAYER   1   ROW     4   COL     6   RATE     750.000    
 BOUNDARY     52   LAYER   1   ROW     4   COL     7   RATE     750.000    
 BOUNDARY     53   LAYER   1   ROW     4   COL     8   RATE     750.000    
 BOUNDARY     54   LAYER   1   ROW     4   COL     9   RATE     750.000    
 BOUNDARY     55   LAYER   1   ROW     4   COL    10   RATE     750.000    
 BOUNDARY     56   LAYER   1   ROW     4   COL    11   RATE     750.000    
 BOUNDARY     57   LAYER   1   ROW     4   COL    12   RATE     750.000    
 BOUNDARY     58   LAYER   1   ROW     4   COL    13   RATE     750.000    
 BOUNDARY     59   LAYER   1   ROW     4   COL    14   RATE     750.000    
 BOUNDARY     60   LAYER   2   ROW     4   COL    15   RATE     750.000    
 BOUNDARY     62   LAYER   1   ROW     5   COL     2   RATE     750.000    
 BOUNDARY     63   LAYER   1   ROW     5   COL     3   RATE     750.000    
 BOUNDARY     64   LAYER   1   ROW     5   COL     4   RATE     750.000    
 BOUNDARY     65   LAYER   1   ROW     5   COL     5   RATE     750.000    
 BOUNDARY     66   LAYER   1   ROW     5   COL     6   RATE     750.000    
 BOUNDARY     67   LAYER   1   ROW     5   COL     7   RATE     750.000    
 BOUNDARY     68   LAYER   1   ROW     5   COL     8   RATE     750.000    
 BOUNDARY     69   LAYER   1   ROW     5   COL     9   RATE     750.000    
 BOUNDARY     70   LAYER   1   ROW     5   COL    10   RATE     750.000    
 BOUNDARY     71   LAYER   1   ROW     5   COL    11   RATE     750.000    
 BOUNDARY     72   LAYER   1   ROW     5   COL    12   RATE     750.000    
 BOUNDARY     73   LAYER   1   ROW     5   COL    13   RATE     750.000    
 BOUNDARY     74   LAYER   1   ROW     5   COL    14   RATE     750.000    
 BOUNDARY     75   LAYER   2   ROW     5   COL    15   RATE     750.000    
 BOUNDARY     77   LAYER   1   ROW     6   COL     2   RATE     750.000    
 BOUNDARY     78   LAYER   1   ROW     6   COL     3   RATE     750.000    
 BOUNDARY     79   LAYER   1   ROW     6   COL     4   RATE     750.000    
 BOUNDARY     80   LAYER   1   ROW     6   COL     5   RATE     750.000    
 BOUNDARY     81   LAYER   1   ROW     6   COL     6   RATE     750.000    
 BOUNDARY     82   LAYER   1   ROW     6   COL     7   RATE     750.000    
 BOUNDARY     83   LAYER   1   ROW     6   COL     8   RATE     750.000    
 BOUNDARY     84   LAYER   1   ROW     6   COL     9   RATE     750.000    
 BOUNDARY     85   LAYER   1   ROW     6   COL    10   RATE     750.000    
 BOUNDARY     86   LAYER   1   ROW     6   COL    11   RATE     750.000    
 BOUNDARY     87   LAYER   1   ROW     6   COL    12   RATE     750.000    
 BOUNDARY     88   LAYER   1   ROW     6   COL    13   RATE     750.000    
 BOUNDARY     89   LAYER   1   ROW     6   COL    14   RATE     750.000    
 BOUNDARY     90   LAYER   2   ROW     6   COL    15   RATE     750.000    
 BOUNDARY     91   LAYER   1   ROW     7   COL     1   RATE     750.000    
 BOUNDARY     92   LAYER   1   ROW     7   COL     2   RATE     750.000    
 BOUNDARY     93   LAYER   1   ROW     7   COL     3   RATE     750.000    
 BOUNDARY     94   LAYER   1   ROW     7   COL     4   RATE     750.000    
 BOUNDARY     95   LAYER   1   ROW     7   COL     5   RATE     750.000    
 BOUNDARY     96   LAYER   1   ROW     7   COL     6   RATE     750.000    
 BOUNDARY     97   LAYER   1   ROW     7   COL     7   RATE     750.000    
 BOUNDARY     98   LAYER   1   ROW     7   COL     8   RATE     750.000    
 BOUNDARY     99   LAYER   1   ROW     7   COL     9   RATE     750.000    
 BOUNDARY    100   LAYER   1   ROW     7   COL    10   RATE     750.000    
 BOUNDARY    101   LAYER   1   ROW     7   COL    11   RATE     750.000    
 BOUNDARY    102   LAYER   1   ROW     7   COL    12   RATE     750.000    
 BOUNDARY    103   LAYER   1   ROW     7   COL    13   RATE     750.000    
 BOUNDARY    104   LAYER   1   ROW     7   COL    14   RATE     750.000    
 BOUNDARY    105   LAYER   2   ROW     7   COL    15   RATE     750.000    
 BOUNDARY    106   LAYER   1   ROW     8   COL     1   RATE     750.000    
 BOUNDARY    107   LAYER   1   ROW     8   COL     2   RATE     750.000    
 BOUNDARY    108   LAYER   1   ROW     8   COL     3   RATE     750.000    
 BOUNDARY    109   LAYER   1   ROW     8   COL     4   RATE     750.000    
 BOUNDARY    110   LAYER   1   ROW     8   COL     5   RATE     750.000    
 BOUNDARY    111   LAYER   1   ROW     8   COL     6   RATE     750.000    
 BOUNDARY    112   LAYER   1   ROW     8   COL     7   RATE     750.000    
 BOUNDARY    113   LAYER   1   ROW     8   COL     8   RATE     750.000    
 BOUNDARY    114   LAYER   1   ROW     8   COL     9   RATE     750.000    
 BOUNDARY    115   LAYER   1   ROW     8   COL    10   RATE     750.000    
 BOUNDARY    116   LAYER   1   ROW     8   COL    11   RATE     750.000    
 BOUNDARY    117   LAYER   1   ROW     8   COL    12   RATE     750.000    
 BOUNDARY    118   LAYER   1   ROW     8   COL    13   RATE     750.000    
 BOUNDARY    119   LAYER   1   ROW     8   COL    14   RATE     750.000    
 BOUNDARY    120   LAYER   2   ROW     8   COL    15   RATE     750.000    
 BOUNDARY    121   LAYER   1   ROW     9   COL     1   RATE     750.000    
 BOUNDARY    122   LAYER   1   ROW     9   COL     2   RATE     750.000    
 BOUNDARY    123   LAYER   1   ROW     9   COL     3   RATE     750.000    
 BOUNDARY    124   LAYER   1   ROW     9   COL     4   RATE     750.000    
 BOUNDARY    125   LAYER   1   ROW     9   COL     5   RATE     750.000    
 BOUNDARY    126   LAYER   1   ROW     9   COL     6   RATE     750.000    
 BOUNDARY    127   LAYER   1   ROW     9   COL     7   RATE     750.000    
 BOUNDARY    128   LAYER   1   ROW     9   COL     8   RATE     750.000    
 BOUNDARY    129   LAYER   1   ROW     9   COL     9   RATE     750.000    
 BOUNDARY    130   LAYER   1   ROW     9   COL    10   RATE     750.000    
 BOUNDARY    131   LAYER   1   ROW     9   COL    11   RATE     750.000    
 BOUNDARY    132   LAYER   1   ROW     9   COL    12   RATE     750.000    
 BOUNDARY    133   LAYER   1   ROW     9   COL    13   RATE     750.000    
 BOUNDARY    134   LAYER   1   ROW     9   COL    14   RATE     750.000    
 BOUNDARY    135   LAYER   2   ROW     9   COL    15   RATE     750.000    
 BOUNDARY    137   LAYER   1   ROW    10   COL     2   RATE     750.000    
 BOUNDARY    138   LAYER   1   ROW    10   COL     3   RATE     750.000    
 BOUNDARY    139   LAYER   1   ROW    10   COL     4   RATE     750.000    
 BOUNDARY    140   LAYER   1   ROW    10   COL     5   RATE     750.000    
 BOUNDARY    141   LAYER   1   ROW    10   COL     6   RATE     750.000    
 BOUNDARY    142   LAYER   1   ROW    10   COL     7   RATE     750.000    
 BOUNDARY    143   LAYER   1   ROW    10   COL     8   RATE     750.000    
 BOUNDARY    144   LAYER   1   ROW    10   COL     9   RATE     750.000    
 BOUNDARY    145   LAYER   1   ROW    10   COL    10   RATE     750.000    
 BOUNDARY    146   LAYER   1   ROW    10   COL    11   RATE     750.000    
 BOUNDARY    147   LAYER   1   ROW    10   COL    12   RATE     750.000    
 BOUNDARY    148   LAYER   1   ROW    10   COL    13   RATE     750.000    
 BOUNDARY    149   LAYER   1   ROW    10   COL    14   RATE     750.000    
 BOUNDARY    150   LAYER   2   ROW    10   COL    15   RATE     750.000    
 UBDSV4 SAVING CONSTANT HEADS   ON UNIT   1017 AT TIME STEP      9, STRESS PERIOD      2

 CONSTANT HEADS     PERIOD  2   STEP  9
 BOUNDARY      1   LAYER   1   ROW     1   COL     1   RATE    -1671.95      CHD-1
 BOUNDARY      2   LAYER   1   ROW     4   COL     1   RATE     2424.37    
 BOUNDARY      3   LAYER   1   ROW     5   COL     1   RATE    -2370.76      CHD_GP
 BOUNDARY      4   LAYER   1   ROW     6   COL     1   RATE     1618.57      CHD_GP
 BOUNDARY      5   LAYER   1   ROW    10   COL     1   RATE    -4248.84      CHD-10
1
  HEAD             IN LAYER   1 AT END OF TIME STEP   9 IN STRESS PERIOD    2
  ---------------------------------------------------------------------------

           1       2       3       4       5       6       7       8       9      10      11      12      13      14      15
 ...........................................................................................................................
   1   120.00  127.81  134.48  139.78  143.78  146.50  148.03  148.41  147.69  145.92  143.14  139.53  135.51  132.22  777.77
   2   117.65  126.48  133.95  139.49  143.69  146.48  148.03  148.42  147.70  145.93  143.15  139.53  135.52  132.22  777.77
   3   101.00  123.71  133.28  138.95  143.57  146.48  148.05  148.44  147.72  145.94  143.16  139.54  135.52  132.23  777.77
   4   120.00  127.11  134.18  139.63  143.79  146.58  148.11  148.48  147.75  145.97  143.18  139.56  135.54  132.24  777.77
   5   120.00  127.97  134.68  140.00  143.99  146.69  148.18  148.53  147.79  145.99  143.20  139.58  135.55  132.26  777.77
   6   120.00  127.59  134.67  140.11  144.11  146.79  148.25  148.59  147.83  146.03  143.23  139.60  135.57  132.27  777.77
   7   104.17  125.16  134.35  140.07  144.18  146.88  148.33  148.65  147.88  146.06  143.25  139.62  135.59  132.29  777.77
   8   120.70  128.45  135.20  140.02  144.28  146.98  148.41  148.70  147.92  146.09  143.28  139.64  135.60  132.30  777.77
   9   124.46  130.19  136.07  140.82  144.58  147.12  148.48  148.75  147.95  146.11  143.29  139.65  135.62  132.31  777.77
  10   120.00  129.69  136.24  141.11  144.74  147.20  148.53  148.78  147.97  146.13  143.30  139.66  135.62  132.32  777.77
1
  HEAD             IN LAYER   2 AT END OF TIME STEP   9 IN STRESS PERIOD    2
  ---------------------------------------------------------------------------

           1       2       3       4       5       6       7       8       9      10      11      12      13      14      15
 ...........................................................................................................................
   1   120.64  121.97  122.31  122.79  130.59  137.87  142.31  143.95  143.18  139.98  133.74  122.76  103.39   67.96    0.41
   2   118.55  118.85  114.77  105.64  123.31  135.44  141.57  143.75  143.12  139.97  133.74  122.76  103.39   67.96    0.41
   3   115.50  115.09  101.37   43.29  110.14  132.50  140.89  143.59  143.10  139.98  133.75  122.77  103.40   67.97    0.41
   4   119.00  119.09  114.93  105.75  123.41  135.53  141.65  143.81  143.17  140.01  133.77  122.78  103.41   67.97    0.41
   5   120.80  122.15  122.52  123.00  130.79  138.04  142.45  144.07  143.27  140.06  133.80  122.80  103.42   67.98    0.41
   6   120.54  122.11  122.59  123.08  130.87  138.13  142.52  144.13  143.31  140.09  133.82  122.82  103.44   67.99    0.41
   7   117.90  119.23  115.31  105.97  123.67  135.77  141.85  143.97  143.30  140.11  133.84  122.84  103.45   68.00    0.41
   8   119.68  117.41  102.56   43.35  110.54  132.89  141.22  143.85  143.29  140.12  133.86  122.85  103.46   68.00    0.41
   9   122.10  121.41  116.43  106.59  124.03  136.00  142.00  144.07  143.37  140.16  133.88  122.87  103.47   68.01    0.41
  10   122.92  124.11  123.99  123.99  131.47  138.52  142.79  144.32  143.45  140.19  133.89  122.88  103.47   68.01    0.41

 HEAD WILL BE SAVED ON UNIT 1018 AT END OF TIME STEP    9, STRESS PERIOD    2
1
  VOLUME BUDGET FOR ENTIRE MODEL AT END OF TIME STEP    9, STRESS PERIOD   2
  ------------------------------------------------------------------------------

     CUMULATIVE VOLUME      L**3       RATES FOR THIS TIME STEP      L**3/T
     ------------------                 ------------------------

           IN:                                      IN:
           ---                                      ---
         STORAGE(SS) =      104873.5110           STORAGE(SS) =        4219.9760
         STORAGE(SY) =      425474.3469           STORAGE(SY) =       50940.8423
    WELLS NEAR RIVER =           0.0000      WELLS NEAR RIVER =           0.0000
               RIVER =           0.0000                 RIVER =           0.0000
           GHB LAKES =      815524.6857             GHB LAKES =       81557.2942
            RECHARGE =     1051250.0000              RECHARGE =      108750.0000
      CONSTANT HEADS =       90085.5351        CONSTANT HEADS =        9023.3764

            TOTAL IN =     2487208.0787              TOTAL IN =      254491.4889

          OUT:                                     OUT:
          ----                                     ----
         STORAGE(SS) =         127.6290           STORAGE(SS) =           9.5068
         STORAGE(SY) =      208444.6645           STORAGE(SY) =       19180.5454
    WELLS NEAR RIVER =      630000.0000      WELLS NEAR RIVER =       70000.0000
               RIVER =      404826.0151                 RIVER =       41189.1640
           GHB LAKES =     1108511.8854             GHB LAKES =      110840.2789
            RECHARGE =           0.0000              RECHARGE =           0.0000
      CONSTANT HEADS =      135297.8910        CONSTANT HEADS =       13271.9939

           TOTAL OUT =     2487208.0849             TOTAL OUT =      254491.4889

            IN - OUT =      -6.2280E-03              IN - OUT =       1.5100E-06

 PERCENT DISCREPANCY =          -0.00     PERCENT DISCREPANCY =           0.00






         TIME SUMMARY AT END OF TIME STEP    9 IN STRESS PERIOD    2
                    SECONDS     MINUTES      HOURS       DAYS        YEARS
                    -----------------------------------------------------------
   TIME STEP LENGTH  86400.      1440.0      24.000     1.00000     2.73785E-03
 STRESS PERIOD TIME 7.77600E+05  12960.      216.00      9.0000     2.46407E-02
         TOTAL TIME 8.64000E+05  14400.      240.00     10.0000     2.73785E-02

 OUTPUT CONTROL FOR STRESS PERIOD    2   TIME STEP   10
    PRINT BUDGET
    PRINT HEAD
    PRINT HEAD FOR ALL LAYERS
    SAVE BUDGET
    SAVE HEAD
    SAVE HEAD FOR ALL LAYERS
 UBDSV1 SAVING      STORAGE(SS) ON UNIT   1017 AT TIME STEP     10, STRESS PERIOD      2
 UBDSV1 SAVING      STORAGE(SY) ON UNIT   1017 AT TIME STEP     10, STRESS PERIOD      2
 UBDSV1 SAVING FLOW RIGHT FACE  ON UNIT   1017 AT TIME STEP     10, STRESS PERIOD      2
 UBDSV1 SAVING FLOW FRONT FACE  ON UNIT   1017 AT TIME STEP     10, STRESS PERIOD      2
 UBDSV1 SAVING FLOW LOWER FACE  ON UNIT   1017 AT TIME STEP     10, STRESS PERIOD      2
 UBDSV4 SAVING WELLS NEAR RIVER ON UNIT   1017 AT TIME STEP     10, STRESS PERIOD      2

 WELLS NEAR RIVER   PERIOD  2   STEP 10
 BOUNDARY      1   LAYER   2   ROW     3   COL     4   RATE    -35000.0    
 BOUNDARY      2   LAYER   2   ROW     8   COL     4   RATE    -35000.0    
 UBDSV4 SAVING RIVER            ON UNIT   1017 AT TIME STEP     10, STRESS PERIOD      2

 RIVER              PERIOD  2   STEP 10
 BOUNDARY      1   LAYER   2   ROW     1   COL    15   RATE    -4120.64    
 BOUNDARY      2   LAYER   2   ROW     2   COL    15   RATE    -4120.76      RIV2
 BOUNDARY      3   LAYER   2   ROW     3   COL    15   RATE    -4120.99      RIV3
 BOUNDARY      4   LAYER   2   ROW     4   COL    15   RATE    -4121.32    
 BOUNDARY      5   LAYER   2   ROW     5   COL    15   RATE    -4121.71    
 BOUNDARY      6   LAYER   2   ROW     6   COL    15   RATE    -4122.13    
 BOUNDARY      7   LAYER   2   ROW     7   COL    15   RATE    -4122.54      RIVX
 BOUNDARY      8   LAYER   2   ROW     8   COL    15   RATE    -4122.89      RIVX
 BOUNDARY      9   LAYER   2   ROW     9   COL    15   RATE    -4123.15      RIVX
 BOUNDARY     10   LAYER   2   ROW    10   COL    15   RATE    -4123.29    

 GHB LAKES          PERIOD  2   STEP 10
 BOUNDARY      1   LAYER   1   ROW     3   COL     1   RATE    -14956.5    
 BOUNDARY      2   LAYER   1   ROW     7   COL     1   RATE     81565.1      GHB2_UPPER
 BOUNDARY      3   LAYER   1   ROW     7   COL     1   RATE    -95869.6      GHB2_LOWER
 UBDSV4 SAVING RECHARGE         ON UNIT   1017 AT TIME STEP     10, STRESS PERIOD      2

 RECHARGE           PERIOD  2   STEP 10
 BOUNDARY      2   LAYER   1   ROW     1   COL     2   RATE     750.000    
 BOUNDARY      3   LAYER   1   ROW     1   COL     3   RATE     750.000    
 BOUNDARY      4   LAYER   1   ROW     1   COL     4   RATE     750.000    
 BOUNDARY      5   LAYER   1   ROW     1   COL     5   RATE     750.000    
 BOUNDARY      6   LAYER   1   ROW     1   COL     6   RATE     750.000    
 BOUNDARY      7   LAYER   1   ROW     1   COL     7   RATE     750.000    
 BOUNDARY      8   LAYER   1   ROW     1   COL     8   RATE     750.000    
 BOUNDARY      9   LAYER   1   ROW     1   COL     9   RATE     750.000    
 BOUNDARY     10   LAYER   1   ROW     1   COL    10   RATE     750.000    
 BOUNDARY     11   LAYER   1   ROW     1   COL    11   RATE     750.000    
 BOUNDARY     12   LAYER   1   ROW     1   COL    12   RATE     750.000    
 BOUNDARY     13   LAYER   1   ROW     1   COL    13   RATE     750.000    
 BOUNDARY     14   LAYER   1   ROW     1   COL    14   RATE     750.000    
 BOUNDARY     15   LAYER   2   ROW     1   COL    15   RATE     750.000    
 BOUNDARY     16   LAYER   1   ROW     2   COL     1   RATE     750.000    
 BOUNDARY     17   LAYER   1   ROW     2   COL     2   RATE     750.000    
 BOUNDARY     18   LAYER   1   ROW     2   COL     3   RATE     750.000    
 BOUNDARY     19   LAYER   1   ROW     2   COL     4   RATE     750.000    
 BOUNDARY     20   LAYER   1   ROW     2   COL     5   RATE     750.000    
 BOUNDARY     21   LAYER   1   ROW     2   COL     6   RATE     750.000    
 BOUNDARY     22   LAYER   1   ROW     2   COL     7   RATE     750.000    
 BOUNDARY     23   LAYER   1   ROW     2   COL     8   RATE     750.000    
 BOUNDARY     24   LAYER   1   ROW     2   COL     9   RATE     750.000    
 BOUNDARY     25   LAYER   1   ROW     2   COL    10   RATE     750.000    
 BOUNDARY     26   LAYER   1   ROW     2   COL    11   RATE     750.000    
 BOUNDARY     27   LAYER   1   ROW     2   COL    12   RATE     750.000    
 BOUNDARY     28   LAYER   1   ROW     2   COL    13   RATE     750.000    
 BOUNDARY     29   LAYER   1   ROW     2   COL    14   RATE     750.000    
 BOUNDARY     30   LAYER   2   ROW     2   COL    15   RATE     750.000    
 BOUNDARY     31   LAYER   1   ROW     3   COL     1   RATE     750.000    
 BOUNDARY     32   LAYER   1   ROW     3   COL     2   RATE     750.000    
 BOUNDARY     33   LAYER   1   ROW     3   COL     3   RATE     750.000    
 BOUNDARY     34   LAYER   1   ROW     3   COL     4   RATE     750.000    
 BOUNDARY     35   LAYER   1   ROW     3   COL     5   RATE     750.000    
 BOUNDARY     36   LAYER   1   ROW     3   COL     6   RATE     750.000    
 BOUNDARY     37   LAYER   1   ROW     3   COL     7   RATE     750.000    
 BOUNDARY     38   LAYER   1   ROW     3   COL     8   RATE     750.000    
 BOUNDARY     39   LAYER   1   ROW     3   COL     9   RATE     750.000    
 BOUNDARY     40   LAYER   1   ROW     3   COL    10   RATE     750.000    
 BOUNDARY     41   LAYER   1   ROW     3   COL    11   RATE     750.000    
 BOUNDARY     42   LAYER   1   ROW     3   COL    12   RATE     750.000    
 BOUNDARY     43   LAYER   1   ROW     3   COL    13   RATE     750.000    
 BOUNDARY     44   LAYER   1   ROW     3   COL    14   RATE     750.000    
 BOUNDARY     45   LAYER   2   ROW     3   COL    15   RATE     750.000    
 BOUNDARY     47   LAYER   1   ROW     4   COL     2   RATE     750.000    
 BOUNDARY     48   LAYER   1   ROW     4   COL     3   RATE     750.000    
 BOUNDARY     49   LAYER   1   ROW     4   COL     4   RATE     750.000    
 BOUNDARY     50   LAYER   1   ROW     4   COL     5   RATE     750.000    
 BOUNDARY     51   LAYER   1   ROW     4   COL     6   RATE     750.000    
 BOUNDARY     52   LAYER   1   ROW     4   COL     7   RATE     750.000    
 BOUNDARY     53   LAYER   1   ROW     4   COL     8   RATE     750.000    
 BOUNDARY     54   LAYER   1   ROW     4   COL     9   RATE     750.000    
 BOUNDARY     55   LAYER   1   ROW     4   COL    10   RATE     750.000    
 BOUNDARY     56   LAYER   1   ROW     4   COL    11   RATE     750.000    
 BOUNDARY     57   LAYER   1   ROW     4   COL    12   RATE     750.000    
 BOUNDARY     58   LAYER   1   ROW     4   COL    13   RATE     750.000    
 BOUNDARY     59   LAYER   1   ROW     4   COL    14   RATE     750.000    
 BOUNDARY     60   LAYER   2   ROW     4   COL    15   RATE     750.000    
 BOUNDARY     62   LAYER   1   ROW     5   COL     2   RATE     750.000    
 BOUNDARY     63   LAYER   1   ROW     5   COL     3   RATE     750.000    
 BOUNDARY     64   LAYER   1   ROW     5   COL     4   RATE     750.000    
 BOUNDARY     65   LAYER   1   ROW     5   COL     5   RATE     750.000    
 BOUNDARY     66   LAYER   1   ROW     5   COL     6   RATE     750.000    
 BOUNDARY     67   LAYER   1   ROW     5   COL     7   RATE     750.000    
 BOUNDARY     68   LAYER   1   ROW     5   COL     8   RATE     750.000    
 BOUNDARY     69   LAYER   1   ROW     5   COL     9   RATE     750.000    
 BOUNDARY     70   LAYER   1   ROW     5   COL    10   RATE     750.000    
 BOUNDARY     71   LAYER   1   ROW     5   COL    11   RATE     750.000    
 BOUNDARY     72   LAYER   1   ROW     5   COL    12   RATE     750.000    
 BOUNDARY     73   LAYER   1   ROW     5   COL    13   RATE     750.000    
 BOUNDARY     74   LAYER   1   ROW     5   COL    14   RATE     750.000    
 BOUNDARY     75   LAYER   2   ROW     5   COL    15   RATE     750.000    
 BOUNDARY     77   LAYER   1   ROW     6   COL     2   RATE     750.000    
 BOUNDARY     78   LAYER   1   ROW     6   COL     3   RATE     750.000    
 BOUNDARY     79   LAYER   1   ROW     6   COL     4   RATE     750.000    
 BOUNDARY     80   LAYER   1   ROW     6   COL     5   RATE     750.000    
 BOUNDARY     81   LAYER   1   ROW     6   COL     6   RATE     750.000    
 BOUNDARY     82   LAYER   1   ROW     6   COL     7   RATE     750.000    
 BOUNDARY     83   LAYER   1   ROW     6   COL     8   RATE     750.000    
 BOUNDARY     84   LAYER   1   ROW     6   COL     9   RATE     750.000    
 BOUNDARY     85   LAYER   1   ROW     6   COL    10   RATE     750.000    
 BOUNDARY     86   LAYER   1   ROW     6   COL    11   RATE     750.000    
 BOUNDARY     87   LAYER   1   ROW     6   COL    12   RATE     750.000    
 BOUNDARY     88   LAYER   1   ROW     6   COL    13   RATE     750.000    
 BOUNDARY     89   LAYER   1   ROW     6   COL    14   RATE     750.000    
 BOUNDARY     90   LAYER   2   ROW     6   COL    15   RATE     750.000    
 BOUNDARY     91   LAYER   1   ROW     7   COL     1   RATE     750.000    
 BOUNDARY     92   LAYER   1   ROW     7   COL     2   RATE     750.000    
 BOUNDARY     93   LAYER   1   ROW     7   COL     3   RATE     750.000    
 BOUNDARY     94   LAYER   1   ROW     7   COL     4   RATE     750.000    
 BOUNDARY     95   LAYER   1   ROW     7   COL     5   RATE     750.000    
 BOUNDARY     96   LAYER   1   ROW     7   COL     6   RATE     750.000    
 BOUNDARY     97   LAYER   1   ROW     7   COL     7   RATE     750.000    
 BOUNDARY     98   LAYER   1   ROW     7   COL     8   RATE     750.000    
 BOUNDARY     99   LAYER   1   ROW     7   COL     9   RATE     750.000    
 BOUNDARY    100   LAYER   1   ROW     7   COL    10   RATE     750.000    
 BOUNDARY    101   LAYER   1   ROW     7   COL    11   RATE     750.000    
 BOUNDARY    102   LAYER   1   ROW     7   COL    12   RATE     750.000    
 BOUNDARY    103   LAYER   1   ROW     7   COL    13   RATE     750.000    
 BOUNDARY    104   LAYER   1   ROW     7   COL    14   RATE     750.000    
 BOUNDARY    105   LAYER   2   ROW     7   COL    15   RATE     750.000    
 BOUNDARY    106   LAYER   1   ROW     8   COL     1   RATE     750.000    
 BOUNDARY    107   LAYER   1   ROW     8   COL     2   RATE     750.000    
 BOUNDARY    108   LAYER   1   ROW     8   COL     3   RATE     750.000    
 BOUNDARY    109   LAYER   1   ROW     8   COL     4   RATE     750.000    
 BOUNDARY    110   LAYER   1   ROW     8   COL     5   RATE     750.000    
 BOUNDARY    111   LAYER   1   ROW     8   COL     6   RATE     750.000    
 BOUNDARY    112   LAYER   1   ROW     8   COL     7   RATE     750.000    
 BOUNDARY    113   LAYER   1   ROW     8   COL     8   RATE     750.000    
 BOUNDARY    114   LAYER   1   ROW     8   COL     9   RATE     750.000    
 BOUNDARY    115   LAYER   1   ROW     8   COL    10   RATE     750.000    
 BOUNDARY    116   LAYER   1   ROW     8   COL    11   RATE     750.000    
 BOUNDARY    117   LAYER   1   ROW     8   COL    12   RATE     750.000    
 BOUNDARY    118   LAYER   1   ROW     8   COL    13   RATE     750.000    
 BOUNDARY    119   LAYER   1   ROW     8   COL    14   RATE     750.000    
 BOUNDARY    120   LAYER   2   ROW     8   COL    15   RATE     750.000    
 BOUNDARY    121   LAYER   1   ROW     9   COL     1   RATE     750.000    
 BOUNDARY    122   LAYER   1   ROW     9   COL     2   RATE     750.000    
 BOUNDARY    123   LAYER   1   ROW     9   COL     3   RATE     750.000    
 BOUNDARY    124   LAYER   1   ROW     9   COL     4   RATE     750.000    
 BOUNDARY    125   LAYER   1   ROW     9   COL     5   RATE     750.000    
 BOUNDARY    126   LAYER   1   ROW     9   COL     6   RATE     750.000    
 BOUNDARY    127   LAYER   1   ROW     9   COL     7   RATE     750.000    
 BOUNDARY    128   LAYER   1   ROW     9   COL     8   RATE     750.000    
 BOUNDARY    129   LAYER   1   ROW     9   COL     9   RATE     750.000    
 BOUNDARY    130   LAYER   1   ROW     9   COL    10   RATE     750.000    
 BOUNDARY    131   LAYER   1   ROW     9   COL    11   RATE     750.000    
 BOUNDARY    132   LAYER   1   ROW     9   COL    12   RATE     750.000    
 BOUNDARY    133   LAYER   1   ROW     9   COL    13   RATE     750.000    
 BOUNDARY    134   LAYER   1   ROW     9   COL    14   RATE     750.000    
 BOUNDARY    135   LAYER   2   ROW     9   COL    15   RATE     750.000    
 BOUNDARY    137   LAYER   1   ROW    10   COL     2   RATE     750.000    
 BOUNDARY    138   LAYER   1   ROW    10   COL     3   RATE     750.000    
 BOUNDARY    139   LAYER   1   ROW    10   COL     4   RATE     750.000    
 BOUNDARY    140   LAYER   1   ROW    10   COL     5   RATE     750.000    
 BOUNDARY    141   LAYER   1   ROW    10   COL     6   RATE     750.000    
 BOUNDARY    142   LAYER   1   ROW    10   COL     7   RATE     750.000    
 BOUNDARY    143   LAYER   1   ROW    10   COL     8   RATE     750.000    
 BOUNDARY    144   LAYER   1   ROW    10   COL     9   RATE     750.000    
 BOUNDARY    145   LAYER   1   ROW    10   COL    10   RATE     750.000    
 BOUNDARY    146   LAYER   1   ROW    10   COL    11   RATE     750.000    
 BOUNDARY    147   LAYER   1   ROW    10   COL    12   RATE     750.000    
 BOUNDARY    148   LAYER   1   ROW    10   COL    13   RATE     750.000    
 BOUNDARY    149   LAYER   1   ROW    10   COL    14   RATE     750.000    
 BOUNDARY    150   LAYER   2   ROW    10   COL    15   RATE     750.000    
 UBDSV4 SAVING CONSTANT HEADS   ON UNIT   1017 AT TIME STEP     10, STRESS PERIOD      2

 CONSTANT HEADS     PERIOD  2   STEP 10
 BOUNDARY      1   LAYER   1   ROW     1   COL     1   RATE    -1663.58      CHD-1
 BOUNDARY      2   LAYER   1   ROW     4   COL     1   RATE     2434.63    
 BOUNDARY      3   LAYER   1   ROW     5   COL     1   RATE    -2361.54      CHD_GP
 BOUNDARY      4   LAYER   1   ROW     6   COL     1   RATE     1627.92      CHD_GP
 BOUNDARY      5   LAYER   1   ROW    10   COL     1   RATE    -4240.51      CHD-10
1
  HEAD             IN LAYER   1 AT END OF TIME STEP  10 IN STRESS PERIOD    2
  ---------------------------------------------------------------------------

           1       2       3       4       5       6       7       8       9      10      11      12      13      14      15
 ...........................................................................................................................
   1   120.00  127.81  134.48  139.78  143.78  146.51  148.03  148.42  147.70  145.93  143.15  139.54  135.52  132.23  777.77
   2   117.65  126.48  133.94  139.47  143.68  146.49  148.03  148.42  147.71  145.94  143.16  139.54  135.53  132.23  777.77
   3   101.00  123.71  133.26  138.89  143.55  146.48  148.06  148.45  147.73  145.95  143.17  139.55  135.53  132.24  777.77
   4   120.00  127.10  134.17  139.61  143.78  146.58  148.11  148.49  147.76  145.98  143.19  139.57  135.55  132.25  777.77
   5   120.00  127.97  134.68  139.99  143.99  146.69  148.18  148.54  147.80  146.00  143.21  139.59  135.56  132.27  777.77
   6   120.00  127.59  134.67  140.11  144.11  146.79  148.26  148.60  147.84  146.04  143.24  139.61  135.58  132.28  777.77
   7   104.17  125.16  134.34  140.04  144.17  146.88  148.34  148.65  147.89  146.07  143.26  139.63  135.60  132.30  777.77
   8   120.70  128.45  135.18  139.96  144.26  146.98  148.41  148.71  147.93  146.10  143.29  139.65  135.61  132.31  777.77
   9   124.46  130.19  136.06  140.80  144.57  147.12  148.49  148.76  147.96  146.12  143.30  139.66  135.63  132.32  777.77
  10   120.00  129.69  136.24  141.11  144.74  147.20  148.53  148.78  147.98  146.14  143.31  139.67  135.63  132.33  777.77
1
  HEAD             IN LAYER   2 AT END OF TIME STEP  10 IN STRESS PERIOD    2
  ---------------------------------------------------------------------------

           1       2       3       4       5       6       7       8       9      10      11      12      13      14      15
 ...........................................................................................................................
   1   120.26  121.55  121.86  122.33  130.18  137.54  142.07  143.81  143.10  139.95  133.72  122.76  103.39   67.96    0.41
   2   118.16  118.43  114.30  105.11  122.87  135.10  141.34  143.60  143.04  139.94  133.73  122.76  103.39   67.97    0.41
   3   115.10  114.65  100.84   42.49  109.65  132.15  140.65  143.45  143.02  139.94  133.74  122.77  103.40   67.97    0.41
   4   118.61  118.67  114.45  105.23  122.97  135.19  141.41  143.66  143.09  139.98  133.76  122.78  103.41   67.98    0.41
   5   120.41  121.74  122.06  122.53  130.37  137.71  142.22  143.93  143.19  140.02  133.78  122.80  103.42   67.98    0.41
   6   120.16  121.69  122.14  122.61  130.45  137.79  142.29  143.98  143.24  140.05  133.81  122.82  103.44   67.99    0.41
   7   117.51  118.80  114.83  105.45  123.23  135.43  141.61  143.82  143.22  140.07  133.83  122.84  103.45   68.00    0.41
   8   119.28  116.97  102.04   42.56  110.05  132.54  140.98  143.70  143.21  140.09  133.85  122.85  103.46   68.01    0.41
   9   121.71  120.99  115.96  106.07  123.59  135.66  141.76  143.92  143.29  140.12  133.87  122.87  103.47   68.01    0.41
  10   122.53  123.69  123.53  123.52  131.05  138.19  142.56  144.17  143.37  140.15  133.88  122.87  103.48   68.02    0.41

 HEAD WILL BE SAVED ON UNIT 1018 AT END OF TIME STEP   10, STRESS PERIOD    2
1
  VOLUME BUDGET FOR ENTIRE MODEL AT END OF TIME STEP   10, STRESS PERIOD   2
  ------------------------------------------------------------------------------

     CUMULATIVE VOLUME      L**3       RATES FOR THIS TIME STEP      L**3/T
     ------------------                 ------------------------

           IN:                                      IN:
           ---                                      ---
         STORAGE(SS) =      108452.7026           STORAGE(SS) =        3579.1916
         STORAGE(SY) =      476653.3212           STORAGE(SY) =       51178.9743
    WELLS NEAR RIVER =           0.0000      WELLS NEAR RIVER =           0.0000
               RIVER =           0.0000                 RIVER =           0.0000
           GHB LAKES =      897089.7888             GHB LAKES =       81565.1031
            RECHARGE =     1160000.0000              RECHARGE =      108750.0000
      CONSTANT HEADS =       99118.2013        CONSTANT HEADS =        9032.6663

            TOTAL IN =     2741314.0140              TOTAL IN =      254105.9353

          OUT:                                     OUT:
          ----                                     ----
         STORAGE(SS) =         136.3362           STORAGE(SS) =           8.7072
         STORAGE(SY) =      227260.6029           STORAGE(SY) =       18815.9385
    WELLS NEAR RIVER =      700000.0000      WELLS NEAR RIVER =       70000.0000
               RIVER =      446045.4229                 RIVER =       41219.4078
           GHB LAKES =     1219338.0182             GHB LAKES =      110826.1328
            RECHARGE =           0.0000              RECHARGE =           0.0000
      CONSTANT HEADS =      148533.6400        CONSTANT HEADS =       13235.7490

           TOTAL OUT =     2741314.0202             TOTAL OUT =      254105.9353

            IN - OUT =      -6.2248E-03              IN - OUT =       3.2562E-06

 PERCENT DISCREPANCY =          -0.00     PERCENT DISCREPANCY =           0.00






         TIME SUMMARY AT END OF TIME STEP   10 IN STRESS PERIOD    2
                    SECONDS     MINUTES      HOURS       DAYS        YEARS
                    -----------------------------------------------------------
   TIME STEP LENGTH  86400.      1440.0      24.000     1.00000     2.73785E-03
 STRESS PERIOD TIME 8.64000E+05  14400.      240.00     10.0000     2.73785E-02
         TOTAL TIME 9.50400E+05  15840.      264.00      11.000     3.01164E-02

 REUSING STORAGE VALUES FROM LAST STRESS PERIOD

 REUSING WELS FROM LAST STRESS PERIOD

 REUSING RIVS FROM LAST STRESS PERIOD

 REUSING GHBS FROM LAST STRESS PERIOD

 REUSING RCHS FROM LAST STRESS PERIOD

 REUSING CHDS FROM LAST STRESS PERIOD

 NO OUTPUT CONTROL FOR STRESS PERIOD    3   TIME STEP    1

 NO OUTPUT CONTROL FOR STRESS PERIOD    3   TIME STEP    2

 NO OUTPUT CONTROL FOR STRESS PERIOD    3   TIME STEP    3

 NO OUTPUT CONTROL FOR STRESS PERIOD    3   TIME STEP    4

 NO OUTPUT CONTROL FOR STRESS PERIOD    3   TIME STEP    5

 NO OUTPUT CONTROL FOR STRESS PERIOD    3   TIME STEP    6

 NO OUTPUT CONTROL FOR STRESS PERIOD    3   TIME STEP    7

 NO OUTPUT CONTROL FOR STRESS PERIOD    3   TIME STEP    8

 NO OUTPUT CONTROL FOR STRESS PERIOD    3   TIME STEP    9

 NO OUTPUT CONTROL FOR STRESS PERIOD    3   TIME STEP   10
1
  VOLUME BUDGET FOR ENTIRE MODEL AT END OF TIME STEP   10, STRESS PERIOD   3
  ------------------------------------------------------------------------------

     CUMULATIVE VOLUME      L**3       RATES FOR THIS TIME STEP      L**3/T
     ------------------                 ------------------------

           IN:                                      IN:
           ---                                      ---
         STORAGE(SS) =      127708.0433           STORAGE(SS) =        1271.0359
         STORAGE(SY) =      992411.7294           STORAGE(SY) =       51565.3760
    WELLS NEAR RIVER =           0.0000      WELLS NEAR RIVER =           0.0000
               RIVER =           0.0000                 RIVER =           0.0000
           GHB LAKES =     1713022.7577             GHB LAKES =       81609.8000
            RECHARGE =     2247500.0000              RECHARGE =      108750.0000
      CONSTANT HEADS =      190451.9338        CONSTANT HEADS =        9195.3176

            TOTAL IN =     5271094.4643              TOTAL IN =      252391.5295

          OUT:                                     OUT:
          ----                                     ----
         STORAGE(SS) =         227.1695           STORAGE(SS) =          12.9869
         STORAGE(SY) =      404590.8722           STORAGE(SY) =       17178.6967
    WELLS NEAR RIVER =     1400000.0000      WELLS NEAR RIVER =       70000.0000
               RIVER =      858834.4567                 RIVER =       41298.8665
           GHB LAKES =     2327062.0495             GHB LAKES =      110739.7769
            RECHARGE =           0.0000              RECHARGE =           0.0000
      CONSTANT HEADS =      280379.9224        CONSTANT HEADS =       13161.2026

           TOTAL OUT =     5271094.4704             TOTAL OUT =      252391.5295

            IN - OUT =      -6.1341E-03              IN - OUT =       1.2239E-05

 PERCENT DISCREPANCY =          -0.00     PERCENT DISCREPANCY =           0.00






         TIME SUMMARY AT END OF TIME STEP   10 IN STRESS PERIOD    3
                    SECONDS     MINUTES      HOURS       DAYS        YEARS
                    -----------------------------------------------------------
   TIME STEP LENGTH  86400.      1440.0      24.000     1.00000     2.73785E-03
 STRESS PERIOD TIME 8.64000E+05  14400.      240.00     10.0000     2.73785E-02
         TOTAL TIME 1.81440E+06  30240.      504.00      21.000     5.74949E-02
 
