                                  MODFLOW-2015     
      U.S. GEOLOGICAL SURVEY MODULAR FINITE-DIFFERENCE GROUND-WATER FLOW MODEL
                            VERSION GWF 3 11/10/2014

 LIST FILE: test4tas.lst
                         UNIT 1004

 OPENING test4tas.ic
 FILE TYPE:IC8   UNIT 1005   STATUS:OLD    
 FORMAT:FORMATTED              ACCESS:SEQUENTIAL          

 OPENING test4tas.npf
 FILE TYPE:NPF8   UNIT 1006   STATUS:OLD    
 FORMAT:FORMATTED              ACCESS:SEQUENTIAL          
#CHD8  test4tas.chd     OLD                                                                                                                                                                                                                                                                                 

 OPENING test4tas.wel
 FILE TYPE:WEL8   UNIT 1007   STATUS:OLD    
 FORMAT:FORMATTED              ACCESS:SEQUENTIAL          

 OPENING test4tas-example.riv
 FILE TYPE:RIV8   UNIT 1008   STATUS:OLD    
 FORMAT:FORMATTED              ACCESS:SEQUENTIAL          

 OPENING test4tas.rch
 FILE TYPE:RCH8   UNIT 1009   STATUS:OLD    
 FORMAT:FORMATTED              ACCESS:SEQUENTIAL          

 OPENING test4tas.oc
 FILE TYPE:OC8   UNIT 1010   STATUS:OLD    
 FORMAT:FORMATTED              ACCESS:SEQUENTIAL          
#OC8   test4tas-brief.oc      OLD                                                                                                                                                                                                                                                                           

 OPENING test4tas.dis
 FILE TYPE:DIS8   UNIT 1011   STATUS:OLD    
 FORMAT:FORMATTED              ACCESS:SEQUENTIAL          

 OPENING test4tas.ghb
 FILE TYPE:GHB8   UNIT 1012   STATUS:OLD    
 FORMAT:FORMATTED              ACCESS:SEQUENTIAL          

 OPENING test4tas.sto
 FILE TYPE:STO8   UNIT 1013   STATUS:OLD    
 FORMAT:FORMATTED              ACCESS:SEQUENTIAL          

 OPENING test4tas.evt
 FILE TYPE:EVT8   UNIT 1014   STATUS:OLD    
 FORMAT:FORMATTED              ACCESS:SEQUENTIAL          

 OPENING test4tas.obs
 FILE TYPE:OBS8   UNIT 1015   STATUS:OLD    
 FORMAT:FORMATTED              ACCESS:SEQUENTIAL          
#                                                                                                                                                                                                                                                                                                           
# Output DATA and DATA(BINARY) files                                                                                                                                                                                                                                                                        
#                                                                                                                                                                                                                                                                                                           

 OPENING test4tas.cbc
 FILE TYPE:DATA(BINARY)   UNIT 1016   STATUS:REPLACE
 FORMAT:UNFORMATTED            ACCESS:STREAM              
#DATA(BINARY) test4tas.hds    REPLACE                                                                                                                                                                                                                                                                       

 OPENING test4tas.hds
 FILE TYPE:DATA   UNIT 1017   STATUS:REPLACE
 FORMAT:FORMATTED              ACCESS:SEQUENTIAL          

 OPENING ibound.out
 FILE TYPE:DATA   UNIT 1018   STATUS:REPLACE
 FORMAT:FORMATTED              ACCESS:SEQUENTIAL          
#                                                                                                                                                                                                                                                                                                           
# Output: single observations                                                                                                                                                                                                                                                                               

 OPENING head_obs.csv
 FILE TYPE:DATA   UNIT 1019   STATUS:REPLACE
 FORMAT:FORMATTED              ACCESS:SEQUENTIAL          

 OPENING riv_obs.csv
 FILE TYPE:DATA   UNIT 1020   STATUS:REPLACE
 FORMAT:FORMATTED              ACCESS:SEQUENTIAL          

 OPENING ghb_obs.csv
 FILE TYPE:DATA   UNIT 1021   STATUS:REPLACE
 FORMAT:FORMATTED              ACCESS:SEQUENTIAL          
#DATA(BINARY) head_obs.bsv  REPLACE                                                                                                                                                                                                                                                                         
#DATA(BINARY) riv_obs.bsv   REPLACE                                                                                                                                                                                                                                                                         
#                                                                                                                                                                                                                                                                                                           
# Output: continuous observations                                                                                                                                                                                                                                                                           

 OPENING ghb_flows.csv
 FILE TYPE:DATA   UNIT 1022   STATUS:REPLACE
 FORMAT:FORMATTED              ACCESS:SEQUENTIAL          

 OPENING head_hydrographs.csv
 FILE TYPE:DATA   UNIT 1023   STATUS:REPLACE
 FORMAT:FORMATTED              ACCESS:SEQUENTIAL          

 OPENING riv_flows.csv
 FILE TYPE:DATA   UNIT 1024   STATUS:REPLACE
 FORMAT:FORMATTED              ACCESS:SEQUENTIAL          

 OPENING intercell_flow_obs1.csv
 FILE TYPE:DATA   UNIT 1025   STATUS:REPLACE
 FORMAT:FORMATTED              ACCESS:SEQUENTIAL          

 OPENING intercell_flow_obs2.csv
 FILE TYPE:DATA   UNIT 1026   STATUS:REPLACE
 FORMAT:FORMATTED              ACCESS:SEQUENTIAL          

 OPENING intercell_flows.csv
 FILE TYPE:DATA   UNIT 1027   STATUS:REPLACE
 FORMAT:FORMATTED              ACCESS:SEQUENTIAL          

 OPENING chd_flows.csv
 FILE TYPE:DATA   UNIT 1028   STATUS:REPLACE
 FORMAT:FORMATTED              ACCESS:SEQUENTIAL          

 OPENING chd_obs.csv
 FILE TYPE:DATA   UNIT 1029   STATUS:REPLACE
 FORMAT:FORMATTED              ACCESS:SEQUENTIAL          
#DATA(BINARY) ghb_flows.bsv            REPLACE                                                                                                                                                                                                                                                              
#DATA(BINARY) head_hydrographs.bsv     REPLACE                                                                                                                                                                                                                                                              
#DATA(BINARY) riv_flows.bsv            REPLACE                                                                                                                                                                                                                                                              
#DATA(BINARY) intercell_flow_obs1.bsv  REPLACE                                                                                                                                                                                                                                                              
#DATA(BINARY) intercell_flow_obs2.bsv  REPLACE                                                                                                                                                                                                                                                              
#DATA(BINARY) intercell_flows.bsv      REPLACE                                                                                                                                                                                                                                                              

 DIS -- STRUCTURED GRID DISCRETIZATION PACKAGE, VERSION 2 : 3/27/2014 - INPUT READ FROM UNIT 1011


 PROCESSING DISCRETIZATION OPTIONS
 END OF DISCRETIZATION OPTIONS
 MODEL LENGTH UNIT IS UNDEFINED
 PROCESSING DISCRETIZATION DIMENSIONS
    NLAY =       2
    NROW =      10
    NCOL =      15
 END OF DISCRETIZATION DIMENSIONS
 PROCESSING DISDATA

                     DELR =   500.000    

                     DELC =   500.000    

 TOP ELEVATION OF LAYER 1 =   150.000    

   MODEL LAYER BOTTOM EL. =   50.0000     FOR LAYER   1

   MODEL LAYER BOTTOM EL. =  -50.0000     FOR LAYER   2
 END PROCESSING DISDATA

 IC -- INITIAL CONDITIONS PACKAGE, VERSION 8, 3/28/2015 INPUT READ FROM UNIT 1005
 #Valley aquifer with 2 sand layers separated by silt.  Stress period 1 is natur
 # conditions.  Stress period 2 adds wells.
 PROCESSING IC OPTIONS
 END OF IC OPTIONS
 PROCESSING ICDATA

             INITIAL HEAD =  100.0000     FOR LAYER   1

             INITIAL HEAD =  100.0000     FOR LAYER   2
 END PROCESSING ICDATA

 NPF -- NODE PROPERTY FLOW PACKAGE, VERSION 1, 3/30/2015 INPUT READ FROM UNIT 1006


 PROCESSING NPF OPTIONS
    CELL-BY-CELL FLOW INFORMATION WILL BE SAVED TO BINARY FILE WHENEVER ICBCFL IS NOT ZERO.
 #  VFC  (turn on vertical flow correction).  Default is off?
    VERTICAL CONDUCTANCE IS CONSTANT.
 #  CVCORRECTION (default is off)
    REWETTING IS ACTIVE.
    IWETIT HAS BEEN SET TO:     1
    WETTING FACTOR HAS BEEN SET TO:    1.000000    
    IHDWET HAS BEEN SET TO:     0
    THE VALUE FOR HDRY HAS BEEN SET TO:     777.770    
 END OF NPF OPTIONS
 #
 PROCESSING NPFDATA

                ICELLTYPE =              1 FOR LAYER   1

                ICELLTYPE =              0 FOR LAYER   2

                 ICELLAVG =         0



                             WETDRY FOR LAYER   1
 READING ON UNIT 1006 WITH FORMAT: (FREE)              

           1          2          3          4          5          6          7          8          9         10         11
          12         13         14         15
 .........................................................................................................................
   1    2.00       2.00       2.00       2.00       2.00       2.00       2.00       2.00      -2.00      -2.00      -2.00    
       -2.00      -2.00      -2.00      -2.00    
   2    2.00       2.00       2.00       2.00       2.00       2.00       2.00       2.00      -2.00      -2.00      -2.00    
       -2.00      -2.00      -2.00      -2.00    
   3    2.00       2.00       2.00      -2.00       2.00       2.00       2.00       2.00      -2.00      -2.00      -2.00    
       -2.00      -2.00      -2.00      -2.00    
   4    2.00       2.00       2.00       2.00       2.00       2.00       2.00       2.00      -2.00      -2.00      -2.00    
       -2.00      -2.00      -2.00      -2.00    
   5    2.00       2.00       2.00       2.00       2.00       2.00       2.00       2.00      -2.00      -2.00      -2.00    
       -2.00      -2.00      -2.00      -2.00    
   6    2.00       2.00       2.00       2.00       2.00       2.00       2.00       2.00      -2.00      -2.00      -2.00    
       -2.00      -2.00      -2.00      -2.00    
   7    2.00       2.00       2.00       2.00       2.00       2.00       2.00       2.00      -2.00      -2.00      -2.00    
       -2.00      -2.00      -2.00      -2.00    
   8    2.00       2.00       2.00      -2.00       2.00       2.00       2.00       2.00      -2.00      -2.00      -2.00    
       -2.00      -2.00      -2.00      -2.00    
   9    2.00       2.00       2.00       2.00       2.00       2.00       2.00       2.00      -2.00      -2.00      -2.00    
       -2.00      -2.00      -2.00      -2.00    
  10    2.00       2.00       2.00       2.00       2.00       2.00       2.00       2.00      -2.00      -2.00      -2.00    
       -2.00      -2.00      -2.00      -2.00    

                   WETDRY =   0.00000     FOR LAYER   2

                       HK =   4.00000     FOR LAYER   1

                       HK =  0.500000     FOR LAYER   2

                       VK =  1.000000E-02
 END PROCESSING NPFDATA

 STO -- STORAGE PACKAGE, VERSION 1, 5/19/2014 INPUT READ FROM UNIT 1013


 PROCESSING STORAGE OPTIONS
    CELL-BY-CELL FLOW INFORMATION WILL BE SAVED TO BINARY FILE WHENEVER ICBCFL IS NOT ZERO.
 #STORAGECOEFFICIENT uncomment if SS is entered as storage coefficient
 END OF STORAGE OPTIONS

 OUTPUT CONTROL IS SPECIFIED ONLY AT TIME STEPS FOR WHICH OUTPUT IS DESIRED
 BINARY CELL-BY-CELL BUDGET INFORMATION WILL BE WRITTEN TO FILE:
 test4tas.cbc
 OPENED ON UNIT NUMBER:   1016
 HEAD             WILL BE SAVED WITH FORMAT: (15(1x,ES10.4))                                             
 IBOUND           WILL BE SAVED WITH FORMAT: (15(1x,i3))                                                 
 HEAD PRINT FORMAT CODE IS -99
 DRAWDOWN PRINT FORMAT CODE IS  99
 IBOUND PRINT FORMAT CODE IS   0
 HEAD WILL BE SAVED ON UNIT 1017
 IBOUND WILL BE SAVED ON UNIT 1018

The Observation Process is active

Processing observation options:

Binary output precision set to: SINGLE
Text output number of digits of precision set to: 10
"Structured" option found. Cell locations for observations will be
read as: Layer Row Column.


 WEL   -- WELLS PACKAGE, VERSION 8, 2/22/2014 INPUT READ FROM UNIT 1007
 #option block.  Note -- no comments allowed on aux line

 PROCESSING WELLS OPTIONS
    AUXILIARY WELLS VARIABLE: VAR1            
    AUXILIARY WELLS VARIABLE: VAR2            
    AUXILIARY WELLS VARIABLE: VAR3            
    WELLS NEAR RIVER PACKAGE NAME: WELLS NEAR RIVER
    LISTS OF WELLS NEAR RIVER CELLS WILL BE PRINTED.
    WELLS NEAR RIVER FLOWS WILL BE PRINTED TO LISTING FILE.
    FLOWS WILL BE SAVED TO BUDGET FILE SPECIFIED IN OUTPUT CONTROL
    WELLS NEAR RIVER BOUNDARIES HAVE NAMES IN LAST COLUMN.
    TIME-SERIES DATA WILL BE READ FROM FILE: well-1_rate.ts
    TIME-SERIES DATA WILL BE READ FROM FILE: well-2_rate.ts
 END OF WELLS NEAR RIVER OPTIONS

 PROCESSING WELLS NEAR RIVER DIMENSIONS
    MAXBOUND =       5
 END OF WELLS NEAR RIVER DIMENSIONS

 RIV   -- RIVER LEAKAGE PACKAGE, VERSION 8, 2/22/2014 INPUT READ FROM UNIT 1008
 #option block.  Note -- no comments allowed on aux line

 PROCESSING RIVER LEAKAGE OPTIONS
    RIVER PACKAGE NAME: RIVER           
    LISTS OF RIVER CELLS WILL BE PRINTED.
    RIVER FLOWS WILL BE PRINTED TO LISTING FILE.
    FLOWS WILL BE SAVED TO BUDGET FILE SPECIFIED IN OUTPUT CONTROL
    RIVER BOUNDARIES HAVE NAMES IN LAST COLUMN.
    TIME-SERIES DATA WILL BE READ FROM FILE: time_series_file_1.ts
    TIME-SERIES DATA WILL BE READ FROM FILE: time_series_file_2.ts
 #Other packages may specify the same TIMESERIESFILE and reuse the same time series.
 #To specify multiple time-series files, enter a TIMESERIESFILE line for each file.
 END OF RIVER OPTIONS

 PROCESSING RIVER DIMENSIONS
    MAXBOUND =      10
 END OF RIVER DIMENSIONS

 GHB   -- HEAD DEP BOUNDS PACKAGE, VERSION 8, 2/22/2014 INPUT READ FROM UNIT 1012
 # Options block

 PROCESSING HEAD DEP BOUNDS OPTIONS
    GHB LAKES PACKAGE NAME: GHB LAKES       
    LISTS OF GHB LAKES CELLS WILL BE PRINTED.
    GHB LAKES FLOWS WILL BE PRINTED TO LISTING FILE.
    GHB LAKES BOUNDARIES HAVE NAMES IN LAST COLUMN.
 END OF GHB LAKES OPTIONS
 # Dimensions block

 PROCESSING GHB LAKES DIMENSIONS
    MAXBOUND =       3
 END OF GHB LAKES DIMENSIONS

 RCH   -- RECHARGE PACKAGE, VERSION 8, 2/22/2014 INPUT READ FROM UNIT 1009

 PROCESSING RECHARGE OPTIONS
    RECHARGE WILL BE APPLIED TO HIGHEST ACTIVE CELL.
    LISTS OF RECHARGE CELLS WILL BE PRINTED.
    RECHARGE FLOWS WILL BE PRINTED TO LISTING FILE.
    FLOWS WILL BE SAVED TO BUDGET FILE SPECIFIED IN OUTPUT CONTROL
    RECHARGE PACKAGE NAME: RECHARGE        
    TIME-ARRAY SERIES DATA WILL BE READ FROM FILE: RchArraySeries.tas

 RchArraySeries           =  2.000000E-03 FOR LAYER   1
    AUXILIARY RECHARGE VARIABLE: VAR1            
 END OF RECHARGE OPTIONS
 # Dimension block is required

 PROCESSING RECHARGE DIMENSIONS
    MAXBOUND =     150
 END OF RECHARGE DIMENSIONS

 EVT   -- EVT PACKAGE, VERSION 8, 2/22/2014 INPUT READ FROM UNIT 1014
 # EVT input file

 PROCESSING EVT OPTIONS
    EVAPOTRANSPIRATION WILL BE APPLIED TO HIGHEST ACTIVE CELL.
    LISTS OF EVT CELLS WILL BE PRINTED.
    EVT FLOWS WILL BE PRINTED TO LISTING FILE.
    FLOWS WILL BE SAVED TO BUDGET FILE SPECIFIED IN OUTPUT CONTROL
    ET SEGS PACKAGE NAME: ET SEGS         
    TIME-ARRAY SERIES DATA WILL BE READ FROM FILE: EtsArraySeries.tas

 EtsArraySeries           =  3.000000E-04 FOR LAYER   1
 END OF ET SEGS OPTIONS

 PROCESSING ET SEGS DIMENSIONS
    MAXBOUND =     150
 END OF ET SEGS DIMENSIONS
 #

 REUSING STORAGE VALUES FROM LAST STRESS PERIOD

 REUSING WELS FROM LAST STRESS PERIOD
 #    layer       row       col    stage           cond       rbot  BoundName

 RIV NO.  LAYER   ROW    COL       STAGE         CONDUCTANCE  BOTTOM EL.      BOUNDARY NAME         
 ---------------------------------------------------------------------------------------------------
      1      1      1     15       101.0           1001.           101.0                      
      2      1      2     15       101.0           1002.           102.0      RIV2            
      3      1      3     15       111.2           1003.           103.0      RIV3            
      4      1      4     15       111.2           1004.           104.0                      
      5      1      5     15       115.3           1005.           105.0                      
      6      1      6     15       115.3           1006.           106.0                      
      7      1      7     15       104.0           1007.           107.0      RIVX            
      8      1      8     15       104.0           1008.           108.0      RIVX            
      9      1      9     15       113.0           1009.           109.0      RIVX            
     10      1     10     15       113.0           1010.           110.0                      
 # Stress-period block(s)

 GHB NO.  LAYER   ROW    COL       STAGE         CONDUCTANCE  BOUNDARY NAME         
 -----------------------------------------------------------------------------------
      1      1      3      1      100.00           1500.                      
      2      1      7      1       110.0           1400.      GHB2_UPPER      
      3      1      7      1       85.00           500.0      GHB2_LOWER      
 # Time-array series applies stress periods 1-7

      LAYER OR NODE INDEX =              1

 VAR1                     =  100.0000    

      LAYER OR NODE INDEX =              1

               ET SURFACE =   140.000    

  EVAPOTRANSPIRATION RATE =  4.000000E-04

         EXTINCTION DEPTH =  10.00000    

 EXTINCT. DEP. PROPORTION =  0.200000    

       ET RATE PROPORTION =  0.300000    

 EXTINCT. DEP. PROPORTION =  0.500000    

       ET RATE PROPORTION =  1.000000E-01
RIV   no.    1 value from time series:   101.00     for time:  0.000     to 1.0000    
RIV   no.    2 value from time series:   101.00     for time:  0.000     to 1.0000    
RIV   no.    3 value from time series:   111.25     for time:  0.000     to 1.0000    
RIV   no.    4 value from time series:   111.25     for time:  0.000     to 1.0000    
RIV   no.    5 value from time series:   115.35     for time:  0.000     to 1.0000    
RIV   no.    6 value from time series:   115.35     for time:  0.000     to 1.0000    
RIV   no.    7 value from time series:   104.05     for time:  0.000     to 1.0000    
RIV   no.    8 value from time series:   104.05     for time:  0.000     to 1.0000    
RIV   no.    9 value from time series:   113.00     for time:  0.000     to 1.0000    
RIV   no.   10 value from time series:   113.00     for time:  0.000     to 1.0000    

 RchArraySeries           =  2.500000E-03 FOR LAYER   1
RIV   no.    1 value from time series:   101.00     for time:  0.000     to 1.0000    
RIV   no.    2 value from time series:   101.00     for time:  0.000     to 1.0000    
RIV   no.    3 value from time series:   111.25     for time:  0.000     to 1.0000    
RIV   no.    4 value from time series:   111.25     for time:  0.000     to 1.0000    
RIV   no.    5 value from time series:   115.35     for time:  0.000     to 1.0000    
RIV   no.    6 value from time series:   115.35     for time:  0.000     to 1.0000    
RIV   no.    7 value from time series:   104.05     for time:  0.000     to 1.0000    
RIV   no.    8 value from time series:   104.05     for time:  0.000     to 1.0000    
RIV   no.    9 value from time series:   113.00     for time:  0.000     to 1.0000    
RIV   no.   10 value from time series:   113.00     for time:  0.000     to 1.0000    

 OUTPUT CONTROL FOR STRESS PERIOD    1   TIME STEP    1
    PRINT BUDGET
    PRINT HEAD
    PRINT HEAD FOR ALL LAYERS
    SAVE BUDGET
    SAVE HEAD
    SAVE HEAD FOR ALL LAYERS
    SAVE IBOUND
    SAVE IBOUND FOR ALL LAYERS
 UBDSV1 SAVING          STORAGE ON UNIT   1016 AT TIME STEP      1, STRESS PERIOD      1
 UBDSV1 SAVING FLOW RIGHT FACE  ON UNIT   1016 AT TIME STEP      1, STRESS PERIOD      1
 UBDSV1 SAVING FLOW FRONT FACE  ON UNIT   1016 AT TIME STEP      1, STRESS PERIOD      1
 UBDSV1 SAVING FLOW LOWER FACE  ON UNIT   1016 AT TIME STEP      1, STRESS PERIOD      1
 UBDSV4 SAVING WELLS NEAR RIVER ON UNIT   1016 AT TIME STEP      1, STRESS PERIOD      1
 UBDSV4 SAVING RIVER            ON UNIT   1016 AT TIME STEP      1, STRESS PERIOD      1

 RIVER              PERIOD  1   STEP  1
 BOUNDARY      1   LAYER   1   ROW     1   COL    15   RATE    -4657.61    
 BOUNDARY      2   LAYER   1   ROW     2   COL    15   RATE    -5758.62      RIV2
 BOUNDARY      3   LAYER   1   ROW     3   COL    15   RATE    -2138.98      RIV3
 BOUNDARY      4   LAYER   1   ROW     4   COL    15   RATE    -3629.01    
 BOUNDARY      5   LAYER   1   ROW     5   COL    15   RATE    -2063.27    
 BOUNDARY      6   LAYER   1   ROW     6   COL    15   RATE    -1438.81    
 BOUNDARY      7   LAYER   1   ROW     7   COL    15   RATE    -5994.58      RIVX
 BOUNDARY      8   LAYER   1   ROW     8   COL    15   RATE    -5765.43      RIVX
 BOUNDARY      9   LAYER   1   ROW     9   COL    15   RATE    -2194.36      RIVX
 BOUNDARY     10   LAYER   1   ROW    10   COL    15   RATE    -3046.62    

 GHB LAKES          PERIOD  1   STEP  1
 BOUNDARY      1   LAYER   1   ROW     3   COL     1   RATE    -14402.9    
 BOUNDARY      2   LAYER   1   ROW     7   COL     1   RATE    -1829.65      GHB2_UPPER
 BOUNDARY      3   LAYER   1   ROW     7   COL     1   RATE    -13153.4      GHB2_LOWER
 UBDSV4 SAVING RECHARGE         ON UNIT   1016 AT TIME STEP      1, STRESS PERIOD      1

 RECHARGE           PERIOD  1   STEP  1
 BOUNDARY      1   LAYER   1   ROW     1   COL     1   RATE     501.042    
 BOUNDARY      2   LAYER   1   ROW     1   COL     2   RATE     501.042    
 BOUNDARY      3   LAYER   1   ROW     1   COL     3   RATE     501.042    
 BOUNDARY      4   LAYER   1   ROW     1   COL     4   RATE     501.042    
 BOUNDARY      5   LAYER   1   ROW     1   COL     5   RATE     501.042    
 BOUNDARY      6   LAYER   1   ROW     1   COL     6   RATE     501.042    
 BOUNDARY      7   LAYER   1   ROW     1   COL     7   RATE     501.042    
 BOUNDARY      8   LAYER   1   ROW     1   COL     8   RATE     501.042    
 BOUNDARY      9   LAYER   1   ROW     1   COL     9   RATE     501.042    
 BOUNDARY     10   LAYER   1   ROW     1   COL    10   RATE     501.042    
 BOUNDARY     11   LAYER   1   ROW     1   COL    11   RATE     501.042    
 BOUNDARY     12   LAYER   1   ROW     1   COL    12   RATE     501.042    
 BOUNDARY     13   LAYER   1   ROW     1   COL    13   RATE     501.042    
 BOUNDARY     14   LAYER   1   ROW     1   COL    14   RATE     501.042    
 BOUNDARY     15   LAYER   1   ROW     1   COL    15   RATE     501.042    
 BOUNDARY     16   LAYER   1   ROW     2   COL     1   RATE     501.042    
 BOUNDARY     17   LAYER   1   ROW     2   COL     2   RATE     501.042    
 BOUNDARY     18   LAYER   1   ROW     2   COL     3   RATE     501.042    
 BOUNDARY     19   LAYER   1   ROW     2   COL     4   RATE     501.042    
 BOUNDARY     20   LAYER   1   ROW     2   COL     5   RATE     501.042    
 BOUNDARY     21   LAYER   1   ROW     2   COL     6   RATE     501.042    
 BOUNDARY     22   LAYER   1   ROW     2   COL     7   RATE     501.042    
 BOUNDARY     23   LAYER   1   ROW     2   COL     8   RATE     501.042    
 BOUNDARY     24   LAYER   1   ROW     2   COL     9   RATE     501.042    
 BOUNDARY     25   LAYER   1   ROW     2   COL    10   RATE     501.042    
 BOUNDARY     26   LAYER   1   ROW     2   COL    11   RATE     501.042    
 BOUNDARY     27   LAYER   1   ROW     2   COL    12   RATE     501.042    
 BOUNDARY     28   LAYER   1   ROW     2   COL    13   RATE     501.042    
 BOUNDARY     29   LAYER   1   ROW     2   COL    14   RATE     501.042    
 BOUNDARY     30   LAYER   1   ROW     2   COL    15   RATE     501.042    
 BOUNDARY     31   LAYER   1   ROW     3   COL     1   RATE     501.042    
 BOUNDARY     32   LAYER   1   ROW     3   COL     2   RATE     501.042    
 BOUNDARY     33   LAYER   1   ROW     3   COL     3   RATE     501.042    
 BOUNDARY     34   LAYER   1   ROW     3   COL     4   RATE     501.042    
 BOUNDARY     35   LAYER   1   ROW     3   COL     5   RATE     501.042    
 BOUNDARY     36   LAYER   1   ROW     3   COL     6   RATE     501.042    
 BOUNDARY     37   LAYER   1   ROW     3   COL     7   RATE     501.042    
 BOUNDARY     38   LAYER   1   ROW     3   COL     8   RATE     501.042    
 BOUNDARY     39   LAYER   1   ROW     3   COL     9   RATE     501.042    
 BOUNDARY     40   LAYER   1   ROW     3   COL    10   RATE     501.042    
 BOUNDARY     41   LAYER   1   ROW     3   COL    11   RATE     501.042    
 BOUNDARY     42   LAYER   1   ROW     3   COL    12   RATE     501.042    
 BOUNDARY     43   LAYER   1   ROW     3   COL    13   RATE     501.042    
 BOUNDARY     44   LAYER   1   ROW     3   COL    14   RATE     501.042    
 BOUNDARY     45   LAYER   1   ROW     3   COL    15   RATE     501.042    
 BOUNDARY     46   LAYER   1   ROW     4   COL     1   RATE     501.042    
 BOUNDARY     47   LAYER   1   ROW     4   COL     2   RATE     501.042    
 BOUNDARY     48   LAYER   1   ROW     4   COL     3   RATE     501.042    
 BOUNDARY     49   LAYER   1   ROW     4   COL     4   RATE     501.042    
 BOUNDARY     50   LAYER   1   ROW     4   COL     5   RATE     501.042    
 BOUNDARY     51   LAYER   1   ROW     4   COL     6   RATE     501.042    
 BOUNDARY     52   LAYER   1   ROW     4   COL     7   RATE     501.042    
 BOUNDARY     53   LAYER   1   ROW     4   COL     8   RATE     501.042    
 BOUNDARY     54   LAYER   1   ROW     4   COL     9   RATE     501.042    
 BOUNDARY     55   LAYER   1   ROW     4   COL    10   RATE     501.042    
 BOUNDARY     56   LAYER   1   ROW     4   COL    11   RATE     501.042    
 BOUNDARY     57   LAYER   1   ROW     4   COL    12   RATE     501.042    
 BOUNDARY     58   LAYER   1   ROW     4   COL    13   RATE     501.042    
 BOUNDARY     59   LAYER   1   ROW     4   COL    14   RATE     501.042    
 BOUNDARY     60   LAYER   1   ROW     4   COL    15   RATE     501.042    
 BOUNDARY     61   LAYER   1   ROW     5   COL     1   RATE     501.042    
 BOUNDARY     62   LAYER   1   ROW     5   COL     2   RATE     501.042    
 BOUNDARY     63   LAYER   1   ROW     5   COL     3   RATE     501.042    
 BOUNDARY     64   LAYER   1   ROW     5   COL     4   RATE     501.042    
 BOUNDARY     65   LAYER   1   ROW     5   COL     5   RATE     501.042    
 BOUNDARY     66   LAYER   1   ROW     5   COL     6   RATE     501.042    
 BOUNDARY     67   LAYER   1   ROW     5   COL     7   RATE     501.042    
 BOUNDARY     68   LAYER   1   ROW     5   COL     8   RATE     501.042    
 BOUNDARY     69   LAYER   1   ROW     5   COL     9   RATE     501.042    
 BOUNDARY     70   LAYER   1   ROW     5   COL    10   RATE     501.042    
 BOUNDARY     71   LAYER   1   ROW     5   COL    11   RATE     501.042    
 BOUNDARY     72   LAYER   1   ROW     5   COL    12   RATE     501.042    
 BOUNDARY     73   LAYER   1   ROW     5   COL    13   RATE     501.042    
 BOUNDARY     74   LAYER   1   ROW     5   COL    14   RATE     501.042    
 BOUNDARY     75   LAYER   1   ROW     5   COL    15   RATE     501.042    
 BOUNDARY     76   LAYER   1   ROW     6   COL     1   RATE     501.042    
 BOUNDARY     77   LAYER   1   ROW     6   COL     2   RATE     501.042    
 BOUNDARY     78   LAYER   1   ROW     6   COL     3   RATE     501.042    
 BOUNDARY     79   LAYER   1   ROW     6   COL     4   RATE     501.042    
 BOUNDARY     80   LAYER   1   ROW     6   COL     5   RATE     501.042    
 BOUNDARY     81   LAYER   1   ROW     6   COL     6   RATE     501.042    
 BOUNDARY     82   LAYER   1   ROW     6   COL     7   RATE     501.042    
 BOUNDARY     83   LAYER   1   ROW     6   COL     8   RATE     501.042    
 BOUNDARY     84   LAYER   1   ROW     6   COL     9   RATE     501.042    
 BOUNDARY     85   LAYER   1   ROW     6   COL    10   RATE     501.042    
 BOUNDARY     86   LAYER   1   ROW     6   COL    11   RATE     501.042    
 BOUNDARY     87   LAYER   1   ROW     6   COL    12   RATE     501.042    
 BOUNDARY     88   LAYER   1   ROW     6   COL    13   RATE     501.042    
 BOUNDARY     89   LAYER   1   ROW     6   COL    14   RATE     501.042    
 BOUNDARY     90   LAYER   1   ROW     6   COL    15   RATE     501.042    
 BOUNDARY     91   LAYER   1   ROW     7   COL     1   RATE     501.042    
 BOUNDARY     92   LAYER   1   ROW     7   COL     2   RATE     501.042    
 BOUNDARY     93   LAYER   1   ROW     7   COL     3   RATE     501.042    
 BOUNDARY     94   LAYER   1   ROW     7   COL     4   RATE     501.042    
 BOUNDARY     95   LAYER   1   ROW     7   COL     5   RATE     501.042    
 BOUNDARY     96   LAYER   1   ROW     7   COL     6   RATE     501.042    
 BOUNDARY     97   LAYER   1   ROW     7   COL     7   RATE     501.042    
 BOUNDARY     98   LAYER   1   ROW     7   COL     8   RATE     501.042    
 BOUNDARY     99   LAYER   1   ROW     7   COL     9   RATE     501.042    
 BOUNDARY    100   LAYER   1   ROW     7   COL    10   RATE     501.042    
 BOUNDARY    101   LAYER   1   ROW     7   COL    11   RATE     501.042    
 BOUNDARY    102   LAYER   1   ROW     7   COL    12   RATE     501.042    
 BOUNDARY    103   LAYER   1   ROW     7   COL    13   RATE     501.042    
 BOUNDARY    104   LAYER   1   ROW     7   COL    14   RATE     501.042    
 BOUNDARY    105   LAYER   1   ROW     7   COL    15   RATE     501.042    
 BOUNDARY    106   LAYER   1   ROW     8   COL     1   RATE     501.042    
 BOUNDARY    107   LAYER   1   ROW     8   COL     2   RATE     501.042    
 BOUNDARY    108   LAYER   1   ROW     8   COL     3   RATE     501.042    
 BOUNDARY    109   LAYER   1   ROW     8   COL     4   RATE     501.042    
 BOUNDARY    110   LAYER   1   ROW     8   COL     5   RATE     501.042    
 BOUNDARY    111   LAYER   1   ROW     8   COL     6   RATE     501.042    
 BOUNDARY    112   LAYER   1   ROW     8   COL     7   RATE     501.042    
 BOUNDARY    113   LAYER   1   ROW     8   COL     8   RATE     501.042    
 BOUNDARY    114   LAYER   1   ROW     8   COL     9   RATE     501.042    
 BOUNDARY    115   LAYER   1   ROW     8   COL    10   RATE     501.042    
 BOUNDARY    116   LAYER   1   ROW     8   COL    11   RATE     501.042    
 BOUNDARY    117   LAYER   1   ROW     8   COL    12   RATE     501.042    
 BOUNDARY    118   LAYER   1   ROW     8   COL    13   RATE     501.042    
 BOUNDARY    119   LAYER   1   ROW     8   COL    14   RATE     501.042    
 BOUNDARY    120   LAYER   1   ROW     8   COL    15   RATE     501.042    
 BOUNDARY    121   LAYER   1   ROW     9   COL     1   RATE     501.042    
 BOUNDARY    122   LAYER   1   ROW     9   COL     2   RATE     501.042    
 BOUNDARY    123   LAYER   1   ROW     9   COL     3   RATE     501.042    
 BOUNDARY    124   LAYER   1   ROW     9   COL     4   RATE     501.042    
 BOUNDARY    125   LAYER   1   ROW     9   COL     5   RATE     501.042    
 BOUNDARY    126   LAYER   1   ROW     9   COL     6   RATE     501.042    
 BOUNDARY    127   LAYER   1   ROW     9   COL     7   RATE     501.042    
 BOUNDARY    128   LAYER   1   ROW     9   COL     8   RATE     501.042    
 BOUNDARY    129   LAYER   1   ROW     9   COL     9   RATE     501.042    
 BOUNDARY    130   LAYER   1   ROW     9   COL    10   RATE     501.042    
 BOUNDARY    131   LAYER   1   ROW     9   COL    11   RATE     501.042    
 BOUNDARY    132   LAYER   1   ROW     9   COL    12   RATE     501.042    
 BOUNDARY    133   LAYER   1   ROW     9   COL    13   RATE     501.042    
 BOUNDARY    134   LAYER   1   ROW     9   COL    14   RATE     501.042    
 BOUNDARY    135   LAYER   1   ROW     9   COL    15   RATE     501.042    
 BOUNDARY    136   LAYER   1   ROW    10   COL     1   RATE     501.042    
 BOUNDARY    137   LAYER   1   ROW    10   COL     2   RATE     501.042    
 BOUNDARY    138   LAYER   1   ROW    10   COL     3   RATE     501.042    
 BOUNDARY    139   LAYER   1   ROW    10   COL     4   RATE     501.042    
 BOUNDARY    140   LAYER   1   ROW    10   COL     5   RATE     501.042    
 BOUNDARY    141   LAYER   1   ROW    10   COL     6   RATE     501.042    
 BOUNDARY    142   LAYER   1   ROW    10   COL     7   RATE     501.042    
 BOUNDARY    143   LAYER   1   ROW    10   COL     8   RATE     501.042    
 BOUNDARY    144   LAYER   1   ROW    10   COL     9   RATE     501.042    
 BOUNDARY    145   LAYER   1   ROW    10   COL    10   RATE     501.042    
 BOUNDARY    146   LAYER   1   ROW    10   COL    11   RATE     501.042    
 BOUNDARY    147   LAYER   1   ROW    10   COL    12   RATE     501.042    
 BOUNDARY    148   LAYER   1   ROW    10   COL    13   RATE     501.042    
 BOUNDARY    149   LAYER   1   ROW    10   COL    14   RATE     501.042    
 BOUNDARY    150   LAYER   1   ROW    10   COL    15   RATE     501.042    
 UBDSV4 SAVING ET SEGS          ON UNIT   1016 AT TIME STEP      1, STRESS PERIOD      1

 ET SEGS            PERIOD  1   STEP  1
 BOUNDARY      1   LAYER   1   ROW     1   COL     1   RATE    -2.06479    
 BOUNDARY      2   LAYER   1   ROW     1   COL     2   RATE    -8.91741    
 BOUNDARY      3   LAYER   1   ROW     1   COL     3   RATE    -47.6417    
 BOUNDARY      4   LAYER   1   ROW     1   COL     4   RATE   -100.0000    
 BOUNDARY      5   LAYER   1   ROW     1   COL     5   RATE   -100.0000    
 BOUNDARY      6   LAYER   1   ROW     1   COL     6   RATE   -100.0000    
 BOUNDARY      7   LAYER   1   ROW     1   COL     7   RATE   -100.0000    
 BOUNDARY      8   LAYER   1   ROW     1   COL     8   RATE   -100.0000    
 BOUNDARY      9   LAYER   1   ROW     1   COL     9   RATE   -100.0000    
 BOUNDARY     10   LAYER   1   ROW     1   COL    10   RATE   -100.0000    
 BOUNDARY     11   LAYER   1   ROW     1   COL    11   RATE   -100.0000    
 BOUNDARY     12   LAYER   1   ROW     1   COL    12   RATE    -16.4954    
 BOUNDARY     13   LAYER   1   ROW     1   COL    13   RATE     0.00000    
 BOUNDARY     14   LAYER   1   ROW     1   COL    14   RATE     0.00000    
 BOUNDARY     15   LAYER   1   ROW     1   COL    15   RATE     0.00000    
 BOUNDARY     16   LAYER   1   ROW     2   COL     1   RATE     0.00000    
 BOUNDARY     17   LAYER   1   ROW     2   COL     2   RATE    -4.40226    
 BOUNDARY     18   LAYER   1   ROW     2   COL     3   RATE    -27.9891    
 BOUNDARY     19   LAYER   1   ROW     2   COL     4   RATE   -100.0000    
 BOUNDARY     20   LAYER   1   ROW     2   COL     5   RATE   -100.0000    
 BOUNDARY     21   LAYER   1   ROW     2   COL     6   RATE   -100.0000    
 BOUNDARY     22   LAYER   1   ROW     2   COL     7   RATE   -100.0000    
 BOUNDARY     23   LAYER   1   ROW     2   COL     8   RATE   -100.0000    
 BOUNDARY     24   LAYER   1   ROW     2   COL     9   RATE   -100.0000    
 BOUNDARY     25   LAYER   1   ROW     2   COL    10   RATE   -100.0000    
 BOUNDARY     26   LAYER   1   ROW     2   COL    11   RATE   -100.0000    
 BOUNDARY     27   LAYER   1   ROW     2   COL    12   RATE    -18.2351    
 BOUNDARY     28   LAYER   1   ROW     2   COL    13   RATE     0.00000    
 BOUNDARY     29   LAYER   1   ROW     2   COL    14   RATE     0.00000    
 BOUNDARY     30   LAYER   1   ROW     2   COL    15   RATE     0.00000    
 BOUNDARY     31   LAYER   1   ROW     3   COL     1   RATE     0.00000    
 BOUNDARY     32   LAYER   1   ROW     3   COL     2   RATE     0.00000    
 BOUNDARY     33   LAYER   1   ROW     3   COL     3   RATE    -22.0003    
 BOUNDARY     34   LAYER   1   ROW     3   COL     4   RATE   -100.0000    
 BOUNDARY     35   LAYER   1   ROW     3   COL     5   RATE   -100.0000    
 BOUNDARY     36   LAYER   1   ROW     3   COL     6   RATE   -100.0000    
 BOUNDARY     37   LAYER   1   ROW     3   COL     7   RATE   -100.0000    
 BOUNDARY     38   LAYER   1   ROW     3   COL     8   RATE   -100.0000    
 BOUNDARY     39   LAYER   1   ROW     3   COL     9   RATE   -100.0000    
 BOUNDARY     40   LAYER   1   ROW     3   COL    10   RATE   -100.0000    
 BOUNDARY     41   LAYER   1   ROW     3   COL    11   RATE   -100.0000    
 BOUNDARY     42   LAYER   1   ROW     3   COL    12   RATE    -21.1694    
 BOUNDARY     43   LAYER   1   ROW     3   COL    13   RATE    -1.78391    
 BOUNDARY     44   LAYER   1   ROW     3   COL    14   RATE     0.00000    
 BOUNDARY     45   LAYER   1   ROW     3   COL    15   RATE     0.00000    
 BOUNDARY     46   LAYER   1   ROW     4   COL     1   RATE     0.00000    
 BOUNDARY     47   LAYER   1   ROW     4   COL     2   RATE    -2.88834    
 BOUNDARY     48   LAYER   1   ROW     4   COL     3   RATE    -25.8653    
 BOUNDARY     49   LAYER   1   ROW     4   COL     4   RATE   -100.0000    
 BOUNDARY     50   LAYER   1   ROW     4   COL     5   RATE   -100.0000    
 BOUNDARY     51   LAYER   1   ROW     4   COL     6   RATE   -100.0000    
 BOUNDARY     52   LAYER   1   ROW     4   COL     7   RATE   -100.0000    
 BOUNDARY     53   LAYER   1   ROW     4   COL     8   RATE   -100.0000    
 BOUNDARY     54   LAYER   1   ROW     4   COL     9   RATE   -100.0000    
 BOUNDARY     55   LAYER   1   ROW     4   COL    10   RATE   -100.0000    
 BOUNDARY     56   LAYER   1   ROW     4   COL    11   RATE   -100.0000    
 BOUNDARY     57   LAYER   1   ROW     4   COL    12   RATE    -23.9706    
 BOUNDARY     58   LAYER   1   ROW     4   COL    13   RATE    -3.25024    
 BOUNDARY     59   LAYER   1   ROW     4   COL    14   RATE     0.00000    
 BOUNDARY     60   LAYER   1   ROW     4   COL    15   RATE     0.00000    
 BOUNDARY     61   LAYER   1   ROW     5   COL     1   RATE     0.00000    
 BOUNDARY     62   LAYER   1   ROW     5   COL     2   RATE    -5.86160    
 BOUNDARY     63   LAYER   1   ROW     5   COL     3   RATE    -29.8528    
 BOUNDARY     64   LAYER   1   ROW     5   COL     4   RATE   -100.0000    
 BOUNDARY     65   LAYER   1   ROW     5   COL     5   RATE   -100.0000    
 BOUNDARY     66   LAYER   1   ROW     5   COL     6   RATE   -100.0000    
 BOUNDARY     67   LAYER   1   ROW     5   COL     7   RATE   -100.0000    
 BOUNDARY     68   LAYER   1   ROW     5   COL     8   RATE   -100.0000    
 BOUNDARY     69   LAYER   1   ROW     5   COL     9   RATE   -100.0000    
 BOUNDARY     70   LAYER   1   ROW     5   COL    10   RATE   -100.0000    
 BOUNDARY     71   LAYER   1   ROW     5   COL    11   RATE   -100.0000    
 BOUNDARY     72   LAYER   1   ROW     5   COL    12   RATE    -25.9130    
 BOUNDARY     73   LAYER   1   ROW     5   COL    13   RATE    -4.17066    
 BOUNDARY     74   LAYER   1   ROW     5   COL    14   RATE     0.00000    
 BOUNDARY     75   LAYER   1   ROW     5   COL    15   RATE     0.00000    
 BOUNDARY     76   LAYER   1   ROW     6   COL     1   RATE     0.00000    
 BOUNDARY     77   LAYER   1   ROW     6   COL     2   RATE    -4.43364    
 BOUNDARY     78   LAYER   1   ROW     6   COL     3   RATE    -33.0982    
 BOUNDARY     79   LAYER   1   ROW     6   COL     4   RATE   -100.0000    
 BOUNDARY     80   LAYER   1   ROW     6   COL     5   RATE   -100.0000    
 BOUNDARY     81   LAYER   1   ROW     6   COL     6   RATE   -100.0000    
 BOUNDARY     82   LAYER   1   ROW     6   COL     7   RATE   -100.0000    
 BOUNDARY     83   LAYER   1   ROW     6   COL     8   RATE   -100.0000    
 BOUNDARY     84   LAYER   1   ROW     6   COL     9   RATE   -100.0000    
 BOUNDARY     85   LAYER   1   ROW     6   COL    10   RATE   -100.0000    
 BOUNDARY     86   LAYER   1   ROW     6   COL    11   RATE   -100.0000    
 BOUNDARY     87   LAYER   1   ROW     6   COL    12   RATE    -26.5623    
 BOUNDARY     88   LAYER   1   ROW     6   COL    13   RATE    -4.13053    
 BOUNDARY     89   LAYER   1   ROW     6   COL    14   RATE     0.00000    
 BOUNDARY     90   LAYER   1   ROW     6   COL    15   RATE     0.00000    
 BOUNDARY     91   LAYER   1   ROW     7   COL     1   RATE     0.00000    
 BOUNDARY     92   LAYER   1   ROW     7   COL     2   RATE   -0.942161    
 BOUNDARY     93   LAYER   1   ROW     7   COL     3   RATE    -39.9852    
 BOUNDARY     94   LAYER   1   ROW     7   COL     4   RATE   -100.0000    
 BOUNDARY     95   LAYER   1   ROW     7   COL     5   RATE   -100.0000    
 BOUNDARY     96   LAYER   1   ROW     7   COL     6   RATE   -100.0000    
 BOUNDARY     97   LAYER   1   ROW     7   COL     7   RATE   -100.0000    
 BOUNDARY     98   LAYER   1   ROW     7   COL     8   RATE   -100.0000    
 BOUNDARY     99   LAYER   1   ROW     7   COL     9   RATE   -100.0000    
 BOUNDARY    100   LAYER   1   ROW     7   COL    10   RATE   -100.0000    
 BOUNDARY    101   LAYER   1   ROW     7   COL    11   RATE   -100.0000    
 BOUNDARY    102   LAYER   1   ROW     7   COL    12   RATE    -26.3967    
 BOUNDARY    103   LAYER   1   ROW     7   COL    13   RATE    -3.39156    
 BOUNDARY    104   LAYER   1   ROW     7   COL    14   RATE     0.00000    
 BOUNDARY    105   LAYER   1   ROW     7   COL    15   RATE     0.00000    
 BOUNDARY    106   LAYER   1   ROW     8   COL     1   RATE     0.00000    
 BOUNDARY    107   LAYER   1   ROW     8   COL     2   RATE    -10.9914    
 BOUNDARY    108   LAYER   1   ROW     8   COL     3   RATE   -100.0000    
 BOUNDARY    109   LAYER   1   ROW     8   COL     4   RATE   -100.0000    
 BOUNDARY    110   LAYER   1   ROW     8   COL     5   RATE   -100.0000    
 BOUNDARY    111   LAYER   1   ROW     8   COL     6   RATE   -100.0000    
 BOUNDARY    112   LAYER   1   ROW     8   COL     7   RATE   -100.0000    
 BOUNDARY    113   LAYER   1   ROW     8   COL     8   RATE   -100.0000    
 BOUNDARY    114   LAYER   1   ROW     8   COL     9   RATE   -100.0000    
 BOUNDARY    115   LAYER   1   ROW     8   COL    10   RATE   -100.0000    
 BOUNDARY    116   LAYER   1   ROW     8   COL    11   RATE   -100.0000    
 BOUNDARY    117   LAYER   1   ROW     8   COL    12   RATE    -26.7818    
 BOUNDARY    118   LAYER   1   ROW     8   COL    13   RATE    -3.39032    
 BOUNDARY    119   LAYER   1   ROW     8   COL    14   RATE     0.00000    
 BOUNDARY    120   LAYER   1   ROW     8   COL    15   RATE     0.00000    
 BOUNDARY    121   LAYER   1   ROW     9   COL     1   RATE    -18.5696    
 BOUNDARY    122   LAYER   1   ROW     9   COL     2   RATE    -59.0698    
 BOUNDARY    123   LAYER   1   ROW     9   COL     3   RATE   -100.0000    
 BOUNDARY    124   LAYER   1   ROW     9   COL     4   RATE   -100.0000    
 BOUNDARY    125   LAYER   1   ROW     9   COL     5   RATE   -100.0000    
 BOUNDARY    126   LAYER   1   ROW     9   COL     6   RATE   -100.0000    
 BOUNDARY    127   LAYER   1   ROW     9   COL     7   RATE   -100.0000    
 BOUNDARY    128   LAYER   1   ROW     9   COL     8   RATE   -100.0000    
 BOUNDARY    129   LAYER   1   ROW     9   COL     9   RATE   -100.0000    
 BOUNDARY    130   LAYER   1   ROW     9   COL    10   RATE   -100.0000    
 BOUNDARY    131   LAYER   1   ROW     9   COL    11   RATE   -100.0000    
 BOUNDARY    132   LAYER   1   ROW     9   COL    12   RATE    -27.8755    
 BOUNDARY    133   LAYER   1   ROW     9   COL    13   RATE    -4.20119    
 BOUNDARY    134   LAYER   1   ROW     9   COL    14   RATE     0.00000    
 BOUNDARY    135   LAYER   1   ROW     9   COL    15   RATE     0.00000    
 BOUNDARY    136   LAYER   1   ROW    10   COL     1   RATE    -67.2832    
 BOUNDARY    137   LAYER   1   ROW    10   COL     2   RATE   -100.0000    
 BOUNDARY    138   LAYER   1   ROW    10   COL     3   RATE   -100.0000    
 BOUNDARY    139   LAYER   1   ROW    10   COL     4   RATE   -100.0000    
 BOUNDARY    140   LAYER   1   ROW    10   COL     5   RATE   -100.0000    
 BOUNDARY    141   LAYER   1   ROW    10   COL     6   RATE   -100.0000    
 BOUNDARY    142   LAYER   1   ROW    10   COL     7   RATE   -100.0000    
 BOUNDARY    143   LAYER   1   ROW    10   COL     8   RATE   -100.0000    
 BOUNDARY    144   LAYER   1   ROW    10   COL     9   RATE   -100.0000    
 BOUNDARY    145   LAYER   1   ROW    10   COL    10   RATE   -100.0000    
 BOUNDARY    146   LAYER   1   ROW    10   COL    11   RATE   -100.0000    
 BOUNDARY    147   LAYER   1   ROW    10   COL    12   RATE    -28.6692    
 BOUNDARY    148   LAYER   1   ROW    10   COL    13   RATE    -4.72590    
 BOUNDARY    149   LAYER   1   ROW    10   COL    14   RATE     0.00000    
 BOUNDARY    150   LAYER   1   ROW    10   COL    15   RATE     0.00000    
1
  HEAD             IN LAYER   1 AT END OF TIME STEP   1 IN STRESS PERIOD    1
  ---------------------------------------------------------------------------

           1          2          3          4          5          6          7          8
 ........................................................................................
   1   131.03239  134.45870  138.50405  141.98536  144.64460  146.37812  147.16998  147.01622
   2   125.74227  132.20113  137.69836  141.71468  144.56997  146.37624  147.19747  147.06006
   3   109.60193  128.76727  136.80005  141.47323  144.53405  146.41360  147.26527  147.14723
   4   124.48402  131.44417  137.37979  141.66287  144.65856  146.53099  147.38452  147.27340
   5   128.24188  132.93080  137.97792  141.98610  144.88903  146.72033  147.55096  147.42883
   6   125.21856  132.21682  138.08852  142.28253  145.17982  146.96580  147.75410  147.60214
   7   111.30689  130.47108  138.28529  142.73440  145.57306  147.26725  147.98325  147.78213
   8   129.15073  135.14871  140.06427  143.64224  146.10759  147.60976  148.21763  147.95319
   9   136.28544  138.83056  141.87110  144.57316  146.62284  147.91710  148.41530  148.09095
  10   139.06523  140.62571  142.89063  145.12999  146.93308  148.09879  148.52914  148.16857
1
  HEAD             IN LAYER   1 AT END OF TIME STEP   1 IN STRESS PERIOD    1
  ---------------------------------------------------------------------------

           9         10         11         12         13         14         15
 .............................................................................
   1   145.89780  143.76525  140.51951  135.97430  129.50722  120.17736  105.65296
   2   145.95898  143.85572  140.66688  136.23527  129.99801  121.07000  106.74712
   3   146.07074  144.01260  140.91466  136.67541  130.89195  123.19756  113.38258
   4   146.21470  144.19579  141.17754  137.09558  131.62512  124.46450  114.86455
   5   146.37169  144.37015  141.39163  137.38695  132.08533  125.37391  117.40300
   6   146.52754  144.51667  141.52680  137.48434  132.06527  125.06460  116.78023
   7   146.67503  144.63797  141.60829  137.45951  131.69578  123.45462  110.00290
   8   146.80817  144.74669  141.69610  137.51727  131.69516  123.33862  109.76967
   9   146.91373  144.83909  141.79789  137.68132  132.10060  124.67251  115.17479
  10   146.97310  144.89373  141.86574  137.80038  132.36295  125.25216  116.01646
1
  HEAD             IN LAYER   2 AT END OF TIME STEP   1 IN STRESS PERIOD    1
  ---------------------------------------------------------------------------

           1          2          3          4          5          6          7          8
 ........................................................................................
   1   132.00390  134.26554  137.42124  140.47481  142.93872  144.59414  145.35020  145.16556
   2   130.22802  133.27490  136.98198  140.30918  142.89429  144.60149  145.38102  145.21102
   3   127.64813  132.16094  136.56442  140.18287  142.88995  144.64914  145.45314  145.30072
   4   129.57854  132.85313  136.81408  140.32275  143.01144  144.76975  145.57561  145.42970
   5   130.78162  133.56345  137.23314  140.61256  143.23976  144.96220  145.74537  145.58827
   6   130.47275  133.70222  137.57011  140.96781  143.54821  145.21483  145.95262  145.76492
   7   129.56149  133.94529  138.11807  141.48299  143.95463  145.52083  146.18462  145.94751
   8   133.39374  136.13647  139.39026  142.26576  144.45726  145.85602  146.41820  146.11953
   9   136.60476  138.31049  140.70373  143.04429  144.92746  146.15091  146.61293  146.25695
  10   138.26973  139.53694  141.48622  143.51577  145.20968  146.32413  146.72447  146.33401
1
  HEAD             IN LAYER   2 AT END OF TIME STEP   1 IN STRESS PERIOD    1
  ---------------------------------------------------------------------------

           9         10         11         12         13         14         15
 .............................................................................
   1   144.01013  141.84872  138.63899  134.34760  129.00780  123.02125  117.81736
   2   144.07227  141.93878  138.78039  134.58266  129.40484  123.66053  118.69568
   3   144.18578  142.09527  139.01788  134.97150  130.07181  124.81562  120.58342
   4   144.33236  142.28000  139.27597  135.36170  130.68519  125.75575  121.83937
   5   144.49281  142.45849  139.49352  135.64718  131.08153  126.32847  122.66633
   6   144.65266  142.61181  139.64339  135.78209  131.16340  126.28752  122.46283
   7   144.80368  142.74025  139.74445  135.82328  131.05152  125.80686  121.27594
   8   144.93862  142.85219  139.83895  135.89694  131.09039  125.78860  121.19463
   9   145.04432  142.94367  139.93367  136.02498  131.32213  126.28748  122.23185
  10   145.10334  142.99681  139.99496  136.11901  131.49642  126.61484  122.74197

 HEAD WILL BE SAVED ON UNIT 1017 AT END OF TIME STEP    1, STRESS PERIOD    1

 IBOUND WILL BE SAVED ON UNIT 1018 AT END OF TIME STEP    1, STRESS PERIOD    1
1
  VOLUME BUDGET FOR ENTIRE MODEL AT END OF TIME STEP    1, STRESS PERIOD   1
  ------------------------------------------------------------------------------

     CUMULATIVE VOLUME      L**3       RATES FOR THIS TIME STEP      L**3/T
     ------------------                 ------------------------

           IN:                                      IN:
           ---                                      ---
             STORAGE =           0.0000               STORAGE =           0.0000
    WELLS NEAR RIVER =           0.0000      WELLS NEAR RIVER =           0.0000
               RIVER =           0.0000                 RIVER =           0.0000
           GHB LAKES =           0.0000             GHB LAKES =           0.0000
            RECHARGE =       75156.2500              RECHARGE =       75156.2500
             ET SEGS =           0.0000               ET SEGS =           0.0000

            TOTAL IN =       75156.2500              TOTAL IN =       75156.2500

          OUT:                                     OUT:
          ----                                     ----
             STORAGE =           0.0000               STORAGE =           0.0000
    WELLS NEAR RIVER =           0.0000      WELLS NEAR RIVER =           0.0000
               RIVER =       36687.2900                 RIVER =       36687.2900
           GHB LAKES =       29385.9908             GHB LAKES =       29385.9908
            RECHARGE =           0.0000              RECHARGE =           0.0000
             ET SEGS =        9082.9700               ET SEGS =        9082.9700

           TOTAL OUT =       75156.2508             TOTAL OUT =       75156.2508

            IN - OUT =      -8.0139E-04              IN - OUT =      -8.0139E-04

 PERCENT DISCREPANCY =          -0.00     PERCENT DISCREPANCY =          -0.00






         TIME SUMMARY AT END OF TIME STEP    1 IN STRESS PERIOD    1
                    SECONDS     MINUTES      HOURS       DAYS        YEARS
                    -----------------------------------------------------------
   TIME STEP LENGTH  86400.      1440.0      24.000     1.00000     2.73785E-03
 STRESS PERIOD TIME  86400.      1440.0      24.000     1.00000     2.73785E-03
         TOTAL TIME  86400.      1440.0      24.000     1.00000     2.73785E-03


 UPDATING STORAGE VALUES
 #iconvert(nodes) is 0:confined, 1:convertible

                 ICONVERT =         1
 #ss(nodes) specific storage

         SPECIFIC STORAGE =  1.000000E-05
 #sy(nodes) specific yield

           SPECIFIC YIELD =  0.200000    
 END UPDATING STORAGE VALUES
 #        k         i         j      flow      var1    var2 var3

 WEL NO.  LAYER   ROW    COL     STRESS RATE  BOUNDARY NAME         VAR1            VAR2            VAR3            
 -------------------------------------------------------------------------------------------------------------------
      1      2      3      4       0.000      WELL_1                1.0000           2.000           3.000    
      2      2      8      4       0.000      WELL_2                 4.000           5.000           6.000    
      3      2      4      6     -10.000                             7.000           8.000           9.000    
      4      2      5      8      -20.00                             17.00           18.00           19.00    
      5      2      2      9      -40.00                             27.00           28.00           29.00    

 REUSING RIVS FROM LAST STRESS PERIOD

 GHB NO.  LAYER   ROW    COL       STAGE         CONDUCTANCE  BOUNDARY NAME         
 -----------------------------------------------------------------------------------
      1      1      3      1      100.00           1502.                      
      2      1      7      1       110.0           1402.      GHB2_UPPER      
      3      1      7      1       85.00           502.0      GHB2_LOWER      
 # Constant recharge applies stress period 8

 REUSING RCHS FROM LAST STRESS PERIOD
WEL   no.    1 value from time series:   0.0000     for time: 1.0000     to  2.000    
WEL   no.    2 value from time series:   0.0000     for time: 1.0000     to  2.000    
RIV   no.    1 value from time series:   102.00     for time: 1.0000     to  2.000    
RIV   no.    2 value from time series:   102.00     for time: 1.0000     to  2.000    
RIV   no.    3 value from time series:   111.75     for time: 1.0000     to  2.000    
RIV   no.    4 value from time series:   111.75     for time: 1.0000     to  2.000    
RIV   no.    5 value from time series:   116.00     for time: 1.0000     to  2.000    
RIV   no.    6 value from time series:   116.00     for time: 1.0000     to  2.000    
RIV   no.    7 value from time series:   104.80     for time: 1.0000     to  2.000    
RIV   no.    8 value from time series:   104.80     for time: 1.0000     to  2.000    
RIV   no.    9 value from time series:   113.50     for time: 1.0000     to  2.000    
RIV   no.   10 value from time series:   113.50     for time: 1.0000     to  2.000    

 EtsArraySeries           =  3.500000E-04 FOR LAYER   1
WEL   no.    1 value from time series:   0.0000     for time: 1.0000     to  2.000    
WEL   no.    2 value from time series:   0.0000     for time: 1.0000     to  2.000    
RIV   no.    1 value from time series:   102.00     for time: 1.0000     to  2.000    
RIV   no.    2 value from time series:   102.00     for time: 1.0000     to  2.000    
RIV   no.    3 value from time series:   111.75     for time: 1.0000     to  2.000    
RIV   no.    4 value from time series:   111.75     for time: 1.0000     to  2.000    
RIV   no.    5 value from time series:   116.00     for time: 1.0000     to  2.000    
RIV   no.    6 value from time series:   116.00     for time: 1.0000     to  2.000    
RIV   no.    7 value from time series:   104.80     for time: 1.0000     to  2.000    
RIV   no.    8 value from time series:   104.80     for time: 1.0000     to  2.000    
RIV   no.    9 value from time series:   113.50     for time: 1.0000     to  2.000    
RIV   no.   10 value from time series:   113.50     for time: 1.0000     to  2.000    

 OUTPUT CONTROL FOR STRESS PERIOD    2   TIME STEP    1
    PRINT BUDGET
    PRINT HEAD
    PRINT HEAD FOR ALL LAYERS
    PRINT DRAWDOWN
    PRINT DRAWDOWN FOR ALL LAYERS
    SAVE BUDGET
    SAVE HEAD
    SAVE HEAD FOR ALL LAYERS
    SAVE IBOUND
    SAVE IBOUND FOR ALL LAYERS
 UBDSV1 SAVING          STORAGE ON UNIT   1016 AT TIME STEP      1, STRESS PERIOD      2
 UBDSV1 SAVING FLOW RIGHT FACE  ON UNIT   1016 AT TIME STEP      1, STRESS PERIOD      2
 UBDSV1 SAVING FLOW FRONT FACE  ON UNIT   1016 AT TIME STEP      1, STRESS PERIOD      2
 UBDSV1 SAVING FLOW LOWER FACE  ON UNIT   1016 AT TIME STEP      1, STRESS PERIOD      2
 UBDSV4 SAVING WELLS NEAR RIVER ON UNIT   1016 AT TIME STEP      1, STRESS PERIOD      2

 WELLS NEAR RIVER   PERIOD  2   STEP  1
 BOUNDARY      1   LAYER   2   ROW     3   COL     4   RATE     0.00000      WELL_1
 BOUNDARY      2   LAYER   2   ROW     8   COL     4   RATE     0.00000      WELL_2
 BOUNDARY      3   LAYER   2   ROW     4   COL     6   RATE   -10.00000    
 BOUNDARY      4   LAYER   2   ROW     5   COL     8   RATE    -20.0000    
 BOUNDARY      5   LAYER   2   ROW     2   COL     9   RATE    -40.0000    
 UBDSV4 SAVING RIVER            ON UNIT   1016 AT TIME STEP      1, STRESS PERIOD      2

 RIVER              PERIOD  2   STEP  1
 BOUNDARY      1   LAYER   1   ROW     1   COL    15   RATE    -3695.34    
 BOUNDARY      2   LAYER   1   ROW     2   COL    15   RATE    -4795.30      RIV2
 BOUNDARY      3   LAYER   1   ROW     3   COL    15   RATE    -1657.05      RIV3
 BOUNDARY      4   LAYER   1   ROW     4   COL    15   RATE    -3146.55    
 BOUNDARY      5   LAYER   1   ROW     5   COL    15   RATE    -1435.32    
 BOUNDARY      6   LAYER   1   ROW     6   COL    15   RATE    -810.332    
 BOUNDARY      7   LAYER   1   ROW     7   COL    15   RATE    -5268.71      RIVX
 BOUNDARY      8   LAYER   1   ROW     8   COL    15   RATE    -5038.82      RIVX
 BOUNDARY      9   LAYER   1   ROW     9   COL    15   RATE    -1709.60      RIVX
 BOUNDARY     10   LAYER   1   ROW    10   COL    15   RATE    -2561.34    

 GHB LAKES          PERIOD  2   STEP  1
 BOUNDARY      1   LAYER   1   ROW     3   COL     1   RATE    -14421.1    
 BOUNDARY      2   LAYER   1   ROW     7   COL     1   RATE    -1829.50      GHB2_UPPER
 BOUNDARY      3   LAYER   1   ROW     7   COL     1   RATE    -13205.1      GHB2_LOWER
 UBDSV4 SAVING RECHARGE         ON UNIT   1016 AT TIME STEP      1, STRESS PERIOD      2

 RECHARGE           PERIOD  2   STEP  1
 BOUNDARY      1   LAYER   1   ROW     1   COL     1   RATE     503.125    
 BOUNDARY      2   LAYER   1   ROW     1   COL     2   RATE     503.125    
 BOUNDARY      3   LAYER   1   ROW     1   COL     3   RATE     503.125    
 BOUNDARY      4   LAYER   1   ROW     1   COL     4   RATE     503.125    
 BOUNDARY      5   LAYER   1   ROW     1   COL     5   RATE     503.125    
 BOUNDARY      6   LAYER   1   ROW     1   COL     6   RATE     503.125    
 BOUNDARY      7   LAYER   1   ROW     1   COL     7   RATE     503.125    
 BOUNDARY      8   LAYER   1   ROW     1   COL     8   RATE     503.125    
 BOUNDARY      9   LAYER   1   ROW     1   COL     9   RATE     503.125    
 BOUNDARY     10   LAYER   1   ROW     1   COL    10   RATE     503.125    
 BOUNDARY     11   LAYER   1   ROW     1   COL    11   RATE     503.125    
 BOUNDARY     12   LAYER   1   ROW     1   COL    12   RATE     503.125    
 BOUNDARY     13   LAYER   1   ROW     1   COL    13   RATE     503.125    
 BOUNDARY     14   LAYER   1   ROW     1   COL    14   RATE     503.125    
 BOUNDARY     15   LAYER   1   ROW     1   COL    15   RATE     503.125    
 BOUNDARY     16   LAYER   1   ROW     2   COL     1   RATE     503.125    
 BOUNDARY     17   LAYER   1   ROW     2   COL     2   RATE     503.125    
 BOUNDARY     18   LAYER   1   ROW     2   COL     3   RATE     503.125    
 BOUNDARY     19   LAYER   1   ROW     2   COL     4   RATE     503.125    
 BOUNDARY     20   LAYER   1   ROW     2   COL     5   RATE     503.125    
 BOUNDARY     21   LAYER   1   ROW     2   COL     6   RATE     503.125    
 BOUNDARY     22   LAYER   1   ROW     2   COL     7   RATE     503.125    
 BOUNDARY     23   LAYER   1   ROW     2   COL     8   RATE     503.125    
 BOUNDARY     24   LAYER   1   ROW     2   COL     9   RATE     503.125    
 BOUNDARY     25   LAYER   1   ROW     2   COL    10   RATE     503.125    
 BOUNDARY     26   LAYER   1   ROW     2   COL    11   RATE     503.125    
 BOUNDARY     27   LAYER   1   ROW     2   COL    12   RATE     503.125    
 BOUNDARY     28   LAYER   1   ROW     2   COL    13   RATE     503.125    
 BOUNDARY     29   LAYER   1   ROW     2   COL    14   RATE     503.125    
 BOUNDARY     30   LAYER   1   ROW     2   COL    15   RATE     503.125    
 BOUNDARY     31   LAYER   1   ROW     3   COL     1   RATE     503.125    
 BOUNDARY     32   LAYER   1   ROW     3   COL     2   RATE     503.125    
 BOUNDARY     33   LAYER   1   ROW     3   COL     3   RATE     503.125    
 BOUNDARY     34   LAYER   1   ROW     3   COL     4   RATE     503.125    
 BOUNDARY     35   LAYER   1   ROW     3   COL     5   RATE     503.125    
 BOUNDARY     36   LAYER   1   ROW     3   COL     6   RATE     503.125    
 BOUNDARY     37   LAYER   1   ROW     3   COL     7   RATE     503.125    
 BOUNDARY     38   LAYER   1   ROW     3   COL     8   RATE     503.125    
 BOUNDARY     39   LAYER   1   ROW     3   COL     9   RATE     503.125    
 BOUNDARY     40   LAYER   1   ROW     3   COL    10   RATE     503.125    
 BOUNDARY     41   LAYER   1   ROW     3   COL    11   RATE     503.125    
 BOUNDARY     42   LAYER   1   ROW     3   COL    12   RATE     503.125    
 BOUNDARY     43   LAYER   1   ROW     3   COL    13   RATE     503.125    
 BOUNDARY     44   LAYER   1   ROW     3   COL    14   RATE     503.125    
 BOUNDARY     45   LAYER   1   ROW     3   COL    15   RATE     503.125    
 BOUNDARY     46   LAYER   1   ROW     4   COL     1   RATE     503.125    
 BOUNDARY     47   LAYER   1   ROW     4   COL     2   RATE     503.125    
 BOUNDARY     48   LAYER   1   ROW     4   COL     3   RATE     503.125    
 BOUNDARY     49   LAYER   1   ROW     4   COL     4   RATE     503.125    
 BOUNDARY     50   LAYER   1   ROW     4   COL     5   RATE     503.125    
 BOUNDARY     51   LAYER   1   ROW     4   COL     6   RATE     503.125    
 BOUNDARY     52   LAYER   1   ROW     4   COL     7   RATE     503.125    
 BOUNDARY     53   LAYER   1   ROW     4   COL     8   RATE     503.125    
 BOUNDARY     54   LAYER   1   ROW     4   COL     9   RATE     503.125    
 BOUNDARY     55   LAYER   1   ROW     4   COL    10   RATE     503.125    
 BOUNDARY     56   LAYER   1   ROW     4   COL    11   RATE     503.125    
 BOUNDARY     57   LAYER   1   ROW     4   COL    12   RATE     503.125    
 BOUNDARY     58   LAYER   1   ROW     4   COL    13   RATE     503.125    
 BOUNDARY     59   LAYER   1   ROW     4   COL    14   RATE     503.125    
 BOUNDARY     60   LAYER   1   ROW     4   COL    15   RATE     503.125    
 BOUNDARY     61   LAYER   1   ROW     5   COL     1   RATE     503.125    
 BOUNDARY     62   LAYER   1   ROW     5   COL     2   RATE     503.125    
 BOUNDARY     63   LAYER   1   ROW     5   COL     3   RATE     503.125    
 BOUNDARY     64   LAYER   1   ROW     5   COL     4   RATE     503.125    
 BOUNDARY     65   LAYER   1   ROW     5   COL     5   RATE     503.125    
 BOUNDARY     66   LAYER   1   ROW     5   COL     6   RATE     503.125    
 BOUNDARY     67   LAYER   1   ROW     5   COL     7   RATE     503.125    
 BOUNDARY     68   LAYER   1   ROW     5   COL     8   RATE     503.125    
 BOUNDARY     69   LAYER   1   ROW     5   COL     9   RATE     503.125    
 BOUNDARY     70   LAYER   1   ROW     5   COL    10   RATE     503.125    
 BOUNDARY     71   LAYER   1   ROW     5   COL    11   RATE     503.125    
 BOUNDARY     72   LAYER   1   ROW     5   COL    12   RATE     503.125    
 BOUNDARY     73   LAYER   1   ROW     5   COL    13   RATE     503.125    
 BOUNDARY     74   LAYER   1   ROW     5   COL    14   RATE     503.125    
 BOUNDARY     75   LAYER   1   ROW     5   COL    15   RATE     503.125    
 BOUNDARY     76   LAYER   1   ROW     6   COL     1   RATE     503.125    
 BOUNDARY     77   LAYER   1   ROW     6   COL     2   RATE     503.125    
 BOUNDARY     78   LAYER   1   ROW     6   COL     3   RATE     503.125    
 BOUNDARY     79   LAYER   1   ROW     6   COL     4   RATE     503.125    
 BOUNDARY     80   LAYER   1   ROW     6   COL     5   RATE     503.125    
 BOUNDARY     81   LAYER   1   ROW     6   COL     6   RATE     503.125    
 BOUNDARY     82   LAYER   1   ROW     6   COL     7   RATE     503.125    
 BOUNDARY     83   LAYER   1   ROW     6   COL     8   RATE     503.125    
 BOUNDARY     84   LAYER   1   ROW     6   COL     9   RATE     503.125    
 BOUNDARY     85   LAYER   1   ROW     6   COL    10   RATE     503.125    
 BOUNDARY     86   LAYER   1   ROW     6   COL    11   RATE     503.125    
 BOUNDARY     87   LAYER   1   ROW     6   COL    12   RATE     503.125    
 BOUNDARY     88   LAYER   1   ROW     6   COL    13   RATE     503.125    
 BOUNDARY     89   LAYER   1   ROW     6   COL    14   RATE     503.125    
 BOUNDARY     90   LAYER   1   ROW     6   COL    15   RATE     503.125    
 BOUNDARY     91   LAYER   1   ROW     7   COL     1   RATE     503.125    
 BOUNDARY     92   LAYER   1   ROW     7   COL     2   RATE     503.125    
 BOUNDARY     93   LAYER   1   ROW     7   COL     3   RATE     503.125    
 BOUNDARY     94   LAYER   1   ROW     7   COL     4   RATE     503.125    
 BOUNDARY     95   LAYER   1   ROW     7   COL     5   RATE     503.125    
 BOUNDARY     96   LAYER   1   ROW     7   COL     6   RATE     503.125    
 BOUNDARY     97   LAYER   1   ROW     7   COL     7   RATE     503.125    
 BOUNDARY     98   LAYER   1   ROW     7   COL     8   RATE     503.125    
 BOUNDARY     99   LAYER   1   ROW     7   COL     9   RATE     503.125    
 BOUNDARY    100   LAYER   1   ROW     7   COL    10   RATE     503.125    
 BOUNDARY    101   LAYER   1   ROW     7   COL    11   RATE     503.125    
 BOUNDARY    102   LAYER   1   ROW     7   COL    12   RATE     503.125    
 BOUNDARY    103   LAYER   1   ROW     7   COL    13   RATE     503.125    
 BOUNDARY    104   LAYER   1   ROW     7   COL    14   RATE     503.125    
 BOUNDARY    105   LAYER   1   ROW     7   COL    15   RATE     503.125    
 BOUNDARY    106   LAYER   1   ROW     8   COL     1   RATE     503.125    
 BOUNDARY    107   LAYER   1   ROW     8   COL     2   RATE     503.125    
 BOUNDARY    108   LAYER   1   ROW     8   COL     3   RATE     503.125    
 BOUNDARY    109   LAYER   1   ROW     8   COL     4   RATE     503.125    
 BOUNDARY    110   LAYER   1   ROW     8   COL     5   RATE     503.125    
 BOUNDARY    111   LAYER   1   ROW     8   COL     6   RATE     503.125    
 BOUNDARY    112   LAYER   1   ROW     8   COL     7   RATE     503.125    
 BOUNDARY    113   LAYER   1   ROW     8   COL     8   RATE     503.125    
 BOUNDARY    114   LAYER   1   ROW     8   COL     9   RATE     503.125    
 BOUNDARY    115   LAYER   1   ROW     8   COL    10   RATE     503.125    
 BOUNDARY    116   LAYER   1   ROW     8   COL    11   RATE     503.125    
 BOUNDARY    117   LAYER   1   ROW     8   COL    12   RATE     503.125    
 BOUNDARY    118   LAYER   1   ROW     8   COL    13   RATE     503.125    
 BOUNDARY    119   LAYER   1   ROW     8   COL    14   RATE     503.125    
 BOUNDARY    120   LAYER   1   ROW     8   COL    15   RATE     503.125    
 BOUNDARY    121   LAYER   1   ROW     9   COL     1   RATE     503.125    
 BOUNDARY    122   LAYER   1   ROW     9   COL     2   RATE     503.125    
 BOUNDARY    123   LAYER   1   ROW     9   COL     3   RATE     503.125    
 BOUNDARY    124   LAYER   1   ROW     9   COL     4   RATE     503.125    
 BOUNDARY    125   LAYER   1   ROW     9   COL     5   RATE     503.125    
 BOUNDARY    126   LAYER   1   ROW     9   COL     6   RATE     503.125    
 BOUNDARY    127   LAYER   1   ROW     9   COL     7   RATE     503.125    
 BOUNDARY    128   LAYER   1   ROW     9   COL     8   RATE     503.125    
 BOUNDARY    129   LAYER   1   ROW     9   COL     9   RATE     503.125    
 BOUNDARY    130   LAYER   1   ROW     9   COL    10   RATE     503.125    
 BOUNDARY    131   LAYER   1   ROW     9   COL    11   RATE     503.125    
 BOUNDARY    132   LAYER   1   ROW     9   COL    12   RATE     503.125    
 BOUNDARY    133   LAYER   1   ROW     9   COL    13   RATE     503.125    
 BOUNDARY    134   LAYER   1   ROW     9   COL    14   RATE     503.125    
 BOUNDARY    135   LAYER   1   ROW     9   COL    15   RATE     503.125    
 BOUNDARY    136   LAYER   1   ROW    10   COL     1   RATE     503.125    
 BOUNDARY    137   LAYER   1   ROW    10   COL     2   RATE     503.125    
 BOUNDARY    138   LAYER   1   ROW    10   COL     3   RATE     503.125    
 BOUNDARY    139   LAYER   1   ROW    10   COL     4   RATE     503.125    
 BOUNDARY    140   LAYER   1   ROW    10   COL     5   RATE     503.125    
 BOUNDARY    141   LAYER   1   ROW    10   COL     6   RATE     503.125    
 BOUNDARY    142   LAYER   1   ROW    10   COL     7   RATE     503.125    
 BOUNDARY    143   LAYER   1   ROW    10   COL     8   RATE     503.125    
 BOUNDARY    144   LAYER   1   ROW    10   COL     9   RATE     503.125    
 BOUNDARY    145   LAYER   1   ROW    10   COL    10   RATE     503.125    
 BOUNDARY    146   LAYER   1   ROW    10   COL    11   RATE     503.125    
 BOUNDARY    147   LAYER   1   ROW    10   COL    12   RATE     503.125    
 BOUNDARY    148   LAYER   1   ROW    10   COL    13   RATE     503.125    
 BOUNDARY    149   LAYER   1   ROW    10   COL    14   RATE     503.125    
 BOUNDARY    150   LAYER   1   ROW    10   COL    15   RATE     503.125    
 UBDSV4 SAVING ET SEGS          ON UNIT   1016 AT TIME STEP      1, STRESS PERIOD      2

 ET SEGS            PERIOD  2   STEP  1
 BOUNDARY      1   LAYER   1   ROW     1   COL     1   RATE    -1.55520    
 BOUNDARY      2   LAYER   1   ROW     1   COL     2   RATE    -6.71618    
 BOUNDARY      3   LAYER   1   ROW     1   COL     3   RATE    -35.8947    
 BOUNDARY      4   LAYER   1   ROW     1   COL     4   RATE    -75.3125    
 BOUNDARY      5   LAYER   1   ROW     1   COL     5   RATE    -75.3125    
 BOUNDARY      6   LAYER   1   ROW     1   COL     6   RATE    -75.3125    
 BOUNDARY      7   LAYER   1   ROW     1   COL     7   RATE    -75.3125    
 BOUNDARY      8   LAYER   1   ROW     1   COL     8   RATE    -75.3125    
 BOUNDARY      9   LAYER   1   ROW     1   COL     9   RATE    -75.3125    
 BOUNDARY     10   LAYER   1   ROW     1   COL    10   RATE    -75.3125    
 BOUNDARY     11   LAYER   1   ROW     1   COL    11   RATE    -75.3125    
 BOUNDARY     12   LAYER   1   ROW     1   COL    12   RATE    -12.4243    
 BOUNDARY     13   LAYER   1   ROW     1   COL    13   RATE     0.00000    
 BOUNDARY     14   LAYER   1   ROW     1   COL    14   RATE     0.00000    
 BOUNDARY     15   LAYER   1   ROW     1   COL    15   RATE     0.00000    
 BOUNDARY     16   LAYER   1   ROW     2   COL     1   RATE     0.00000    
 BOUNDARY     17   LAYER   1   ROW     2   COL     2   RATE    -3.31565    
 BOUNDARY     18   LAYER   1   ROW     2   COL     3   RATE    -21.0811    
 BOUNDARY     19   LAYER   1   ROW     2   COL     4   RATE    -75.3125    
 BOUNDARY     20   LAYER   1   ROW     2   COL     5   RATE    -75.3125    
 BOUNDARY     21   LAYER   1   ROW     2   COL     6   RATE    -75.3125    
 BOUNDARY     22   LAYER   1   ROW     2   COL     7   RATE    -75.3125    
 BOUNDARY     23   LAYER   1   ROW     2   COL     8   RATE    -75.3125    
 BOUNDARY     24   LAYER   1   ROW     2   COL     9   RATE    -75.3125    
 BOUNDARY     25   LAYER   1   ROW     2   COL    10   RATE    -75.3125    
 BOUNDARY     26   LAYER   1   ROW     2   COL    11   RATE    -75.3125    
 BOUNDARY     27   LAYER   1   ROW     2   COL    12   RATE    -13.7347    
 BOUNDARY     28   LAYER   1   ROW     2   COL    13   RATE     0.00000    
 BOUNDARY     29   LAYER   1   ROW     2   COL    14   RATE     0.00000    
 BOUNDARY     30   LAYER   1   ROW     2   COL    15   RATE     0.00000    
 BOUNDARY     31   LAYER   1   ROW     3   COL     1   RATE     0.00000    
 BOUNDARY     32   LAYER   1   ROW     3   COL     2   RATE     0.00000    
 BOUNDARY     33   LAYER   1   ROW     3   COL     3   RATE    -16.5705    
 BOUNDARY     34   LAYER   1   ROW     3   COL     4   RATE    -75.3125    
 BOUNDARY     35   LAYER   1   ROW     3   COL     5   RATE    -75.3125    
 BOUNDARY     36   LAYER   1   ROW     3   COL     6   RATE    -75.3125    
 BOUNDARY     37   LAYER   1   ROW     3   COL     7   RATE    -75.3125    
 BOUNDARY     38   LAYER   1   ROW     3   COL     8   RATE    -75.3125    
 BOUNDARY     39   LAYER   1   ROW     3   COL     9   RATE    -75.3125    
 BOUNDARY     40   LAYER   1   ROW     3   COL    10   RATE    -75.3125    
 BOUNDARY     41   LAYER   1   ROW     3   COL    11   RATE    -75.3125    
 BOUNDARY     42   LAYER   1   ROW     3   COL    12   RATE    -15.9447    
 BOUNDARY     43   LAYER   1   ROW     3   COL    13   RATE    -1.34366    
 BOUNDARY     44   LAYER   1   ROW     3   COL    14   RATE     0.00000    
 BOUNDARY     45   LAYER   1   ROW     3   COL    15   RATE     0.00000    
 BOUNDARY     46   LAYER   1   ROW     4   COL     1   RATE     0.00000    
 BOUNDARY     47   LAYER   1   ROW     4   COL     2   RATE    -2.17545    
 BOUNDARY     48   LAYER   1   ROW     4   COL     3   RATE    -19.4815    
 BOUNDARY     49   LAYER   1   ROW     4   COL     4   RATE    -75.3125    
 BOUNDARY     50   LAYER   1   ROW     4   COL     5   RATE    -75.3125    
 BOUNDARY     51   LAYER   1   ROW     4   COL     6   RATE    -75.3125    
 BOUNDARY     52   LAYER   1   ROW     4   COL     7   RATE    -75.3125    
 BOUNDARY     53   LAYER   1   ROW     4   COL     8   RATE    -75.3125    
 BOUNDARY     54   LAYER   1   ROW     4   COL     9   RATE    -75.3125    
 BOUNDARY     55   LAYER   1   ROW     4   COL    10   RATE    -75.3125    
 BOUNDARY     56   LAYER   1   ROW     4   COL    11   RATE    -75.3125    
 BOUNDARY     57   LAYER   1   ROW     4   COL    12   RATE    -18.0545    
 BOUNDARY     58   LAYER   1   ROW     4   COL    13   RATE    -2.44802    
 BOUNDARY     59   LAYER   1   ROW     4   COL    14   RATE     0.00000    
 BOUNDARY     60   LAYER   1   ROW     4   COL    15   RATE     0.00000    
 BOUNDARY     61   LAYER   1   ROW     5   COL     1   RATE     0.00000    
 BOUNDARY     62   LAYER   1   ROW     5   COL     2   RATE    -4.41473    
 BOUNDARY     63   LAYER   1   ROW     5   COL     3   RATE    -22.4848    
 BOUNDARY     64   LAYER   1   ROW     5   COL     4   RATE    -75.3125    
 BOUNDARY     65   LAYER   1   ROW     5   COL     5   RATE    -75.3125    
 BOUNDARY     66   LAYER   1   ROW     5   COL     6   RATE    -75.3125    
 BOUNDARY     67   LAYER   1   ROW     5   COL     7   RATE    -75.3125    
 BOUNDARY     68   LAYER   1   ROW     5   COL     8   RATE    -75.3125    
 BOUNDARY     69   LAYER   1   ROW     5   COL     9   RATE    -75.3125    
 BOUNDARY     70   LAYER   1   ROW     5   COL    10   RATE    -75.3125    
 BOUNDARY     71   LAYER   1   ROW     5   COL    11   RATE    -75.3125    
 BOUNDARY     72   LAYER   1   ROW     5   COL    12   RATE    -19.5175    
 BOUNDARY     73   LAYER   1   ROW     5   COL    13   RATE    -3.14122    
 BOUNDARY     74   LAYER   1   ROW     5   COL    14   RATE     0.00000    
 BOUNDARY     75   LAYER   1   ROW     5   COL    15   RATE     0.00000    
 BOUNDARY     76   LAYER   1   ROW     6   COL     1   RATE     0.00000    
 BOUNDARY     77   LAYER   1   ROW     6   COL     2   RATE    -3.33928    
 BOUNDARY     78   LAYER   1   ROW     6   COL     3   RATE    -24.9380    
 BOUNDARY     79   LAYER   1   ROW     6   COL     4   RATE    -75.3125    
 BOUNDARY     80   LAYER   1   ROW     6   COL     5   RATE    -75.3125    
 BOUNDARY     81   LAYER   1   ROW     6   COL     6   RATE    -75.3125    
 BOUNDARY     82   LAYER   1   ROW     6   COL     7   RATE    -75.3125    
 BOUNDARY     83   LAYER   1   ROW     6   COL     8   RATE    -75.3125    
 BOUNDARY     84   LAYER   1   ROW     6   COL     9   RATE    -75.3125    
 BOUNDARY     85   LAYER   1   ROW     6   COL    10   RATE    -75.3125    
 BOUNDARY     86   LAYER   1   ROW     6   COL    11   RATE    -75.3125    
 BOUNDARY     87   LAYER   1   ROW     6   COL    12   RATE    -20.0065    
 BOUNDARY     88   LAYER   1   ROW     6   COL    13   RATE    -3.11100    
 BOUNDARY     89   LAYER   1   ROW     6   COL    14   RATE     0.00000    
 BOUNDARY     90   LAYER   1   ROW     6   COL    15   RATE     0.00000    
 BOUNDARY     91   LAYER   1   ROW     7   COL     1   RATE     0.00000    
 BOUNDARY     92   LAYER   1   ROW     7   COL     2   RATE   -0.709691    
 BOUNDARY     93   LAYER   1   ROW     7   COL     3   RATE    -30.1267    
 BOUNDARY     94   LAYER   1   ROW     7   COL     4   RATE    -75.3125    
 BOUNDARY     95   LAYER   1   ROW     7   COL     5   RATE    -75.3125    
 BOUNDARY     96   LAYER   1   ROW     7   COL     6   RATE    -75.3125    
 BOUNDARY     97   LAYER   1   ROW     7   COL     7   RATE    -75.3125    
 BOUNDARY     98   LAYER   1   ROW     7   COL     8   RATE    -75.3125    
 BOUNDARY     99   LAYER   1   ROW     7   COL     9   RATE    -75.3125    
 BOUNDARY    100   LAYER   1   ROW     7   COL    10   RATE    -75.3125    
 BOUNDARY    101   LAYER   1   ROW     7   COL    11   RATE    -75.3125    
 BOUNDARY    102   LAYER   1   ROW     7   COL    12   RATE    -19.8818    
 BOUNDARY    103   LAYER   1   ROW     7   COL    13   RATE    -2.55445    
 BOUNDARY    104   LAYER   1   ROW     7   COL    14   RATE     0.00000    
 BOUNDARY    105   LAYER   1   ROW     7   COL    15   RATE     0.00000    
 BOUNDARY    106   LAYER   1   ROW     8   COL     1   RATE     0.00000    
 BOUNDARY    107   LAYER   1   ROW     8   COL     2   RATE    -8.27893    
 BOUNDARY    108   LAYER   1   ROW     8   COL     3   RATE    -75.3125    
 BOUNDARY    109   LAYER   1   ROW     8   COL     4   RATE    -75.3125    
 BOUNDARY    110   LAYER   1   ROW     8   COL     5   RATE    -75.3125    
 BOUNDARY    111   LAYER   1   ROW     8   COL     6   RATE    -75.3125    
 BOUNDARY    112   LAYER   1   ROW     8   COL     7   RATE    -75.3125    
 BOUNDARY    113   LAYER   1   ROW     8   COL     8   RATE    -75.3125    
 BOUNDARY    114   LAYER   1   ROW     8   COL     9   RATE    -75.3125    
 BOUNDARY    115   LAYER   1   ROW     8   COL    10   RATE    -75.3125    
 BOUNDARY    116   LAYER   1   ROW     8   COL    11   RATE    -75.3125    
 BOUNDARY    117   LAYER   1   ROW     8   COL    12   RATE    -20.1718    
 BOUNDARY    118   LAYER   1   ROW     8   COL    13   RATE    -2.55352    
 BOUNDARY    119   LAYER   1   ROW     8   COL    14   RATE     0.00000    
 BOUNDARY    120   LAYER   1   ROW     8   COL    15   RATE     0.00000    
 BOUNDARY    121   LAYER   1   ROW     9   COL     1   RATE    -13.9866    
 BOUNDARY    122   LAYER   1   ROW     9   COL     2   RATE    -44.5045    
 BOUNDARY    123   LAYER   1   ROW     9   COL     3   RATE    -75.3125    
 BOUNDARY    124   LAYER   1   ROW     9   COL     4   RATE    -75.3125    
 BOUNDARY    125   LAYER   1   ROW     9   COL     5   RATE    -75.3125    
 BOUNDARY    126   LAYER   1   ROW     9   COL     6   RATE    -75.3125    
 BOUNDARY    127   LAYER   1   ROW     9   COL     7   RATE    -75.3125    
 BOUNDARY    128   LAYER   1   ROW     9   COL     8   RATE    -75.3125    
 BOUNDARY    129   LAYER   1   ROW     9   COL     9   RATE    -75.3125    
 BOUNDARY    130   LAYER   1   ROW     9   COL    10   RATE    -75.3125    
 BOUNDARY    131   LAYER   1   ROW     9   COL    11   RATE    -75.3125    
 BOUNDARY    132   LAYER   1   ROW     9   COL    12   RATE    -20.9955    
 BOUNDARY    133   LAYER   1   ROW     9   COL    13   RATE    -3.16422    
 BOUNDARY    134   LAYER   1   ROW     9   COL    14   RATE     0.00000    
 BOUNDARY    135   LAYER   1   ROW     9   COL    15   RATE     0.00000    
 BOUNDARY    136   LAYER   1   ROW    10   COL     1   RATE    -50.6923    
 BOUNDARY    137   LAYER   1   ROW    10   COL     2   RATE    -75.3125    
 BOUNDARY    138   LAYER   1   ROW    10   COL     3   RATE    -75.3125    
 BOUNDARY    139   LAYER   1   ROW    10   COL     4   RATE    -75.3125    
 BOUNDARY    140   LAYER   1   ROW    10   COL     5   RATE    -75.3125    
 BOUNDARY    141   LAYER   1   ROW    10   COL     6   RATE    -75.3125    
 BOUNDARY    142   LAYER   1   ROW    10   COL     7   RATE    -75.3125    
 BOUNDARY    143   LAYER   1   ROW    10   COL     8   RATE    -75.3125    
 BOUNDARY    144   LAYER   1   ROW    10   COL     9   RATE    -75.3125    
 BOUNDARY    145   LAYER   1   ROW    10   COL    10   RATE    -75.3125    
 BOUNDARY    146   LAYER   1   ROW    10   COL    11   RATE    -75.3125    
 BOUNDARY    147   LAYER   1   ROW    10   COL    12   RATE    -21.5934    
 BOUNDARY    148   LAYER   1   ROW    10   COL    13   RATE    -3.55939    
 BOUNDARY    149   LAYER   1   ROW    10   COL    14   RATE     0.00000    
 BOUNDARY    150   LAYER   1   ROW    10   COL    15   RATE     0.00000    
1
  HEAD             IN LAYER   1 AT END OF TIME STEP   1 IN STRESS PERIOD    2
  ---------------------------------------------------------------------------

           1          2          3          4          5          6          7          8
 ........................................................................................
   1   131.03250  134.45888  138.50460  141.98643  144.64567  146.37919  147.17105  147.01729
   2   125.74235  132.20126  137.69873  141.71574  144.57104  146.37731  147.19853  147.06111
   3   109.60129  128.76735  136.80036  141.47429  144.53512  146.41466  147.26634  147.14829
   4   124.48410  131.44428  137.38014  141.66393  144.65962  146.53203  147.38559  147.27446
   5   128.24196  132.93094  137.97830  141.98716  144.89010  146.72140  147.55202  147.42984
   6   125.21863  132.21695  138.08893  142.28360  145.18089  146.96687  147.75517  147.60320
   7   111.30492  130.47116  138.28578  142.73547  145.57413  147.26832  147.98432  147.78320
   8   129.15080  135.14892  140.06532  143.64331  146.10866  147.61083  148.21870  147.95426
   9   136.28571  138.83123  141.87217  144.57423  146.62391  147.91817  148.41637  148.09202
  10   139.06598  140.62677  142.89170  145.13106  146.93415  148.09986  148.53021  148.16964
1
  HEAD             IN LAYER   1 AT END OF TIME STEP   1 IN STRESS PERIOD    2
  ---------------------------------------------------------------------------

           9         10         11         12         13         14         15
 .............................................................................
   1   145.89885  143.76631  140.52057  135.97456  129.50730  120.17768  105.69165
   2   145.95994  143.85677  140.66794  136.23554  129.99810  121.07033  106.78573
   3   146.07179  144.01366  140.91572  136.67571  130.89206  123.19779  113.40210
   4   146.21577  144.19686  141.17860  137.09591  131.62524  124.46473  114.88402
   5   146.37275  144.37122  141.39269  137.38730  132.08546  125.37419  117.42818
   6   146.52861  144.51774  141.52786  137.48469  132.06539  125.06488  116.80550
   7   146.67610  144.63904  141.60935  137.45986  131.69590  123.45490  110.03208
   8   146.80924  144.74776  141.69716  137.51762  131.69528  123.33890  109.79883
   9   146.91480  144.84016  141.79895  137.68168  132.10073  124.67274  115.19435
  10   146.97417  144.89480  141.86680  137.80076  132.36308  125.25240  116.03598
1
  HEAD             IN LAYER   2 AT END OF TIME STEP   1 IN STRESS PERIOD    2
  ---------------------------------------------------------------------------

           1          2          3          4          5          6          7          8
 ........................................................................................
   1   132.00392  134.26557  137.42131  140.47491  142.93875  144.59386  145.34875  145.15854
   2   130.22802  133.27492  136.98202  140.30921  142.89406  144.60034  145.37753  145.18916
   3   127.64808  132.16094  136.56442  140.18268  142.88854  144.64354  145.44999  145.29304
   4   129.57854  132.85313  136.81401  140.32207  143.00609  144.73428  145.56711  145.41711
   5   130.78163  133.56346  137.23315  140.61235  143.23819  144.95537  145.73323  145.51801
   6   130.47273  133.70224  137.57015  140.96784  143.54794  145.21358  145.94950  145.75421
   7   129.56134  133.94529  138.11813  141.48310  143.95468  145.52070  146.18411  145.94606
   8   133.39374  136.13651  139.39038  142.26589  144.45738  145.85611  146.41823  146.11944
   9   136.60481  138.31057  140.70387  143.04443  144.92760  146.15104  146.61305  146.25706
  10   138.26982  139.53707  141.48635  143.51591  145.20982  146.32427  146.72461  146.33415
1
  HEAD             IN LAYER   2 AT END OF TIME STEP   1 IN STRESS PERIOD    2
  ---------------------------------------------------------------------------

           9         10         11         12         13         14         15
 .............................................................................
   1   143.98560  141.84174  138.63761  134.34738  129.00789  123.02198  117.82159
   2   143.93205  141.91718  138.77728  134.58225  129.40490  123.66120  118.69967
   3   144.16371  142.08930  139.01676  134.97134  130.07187  124.81608  120.58586
   4   144.32627  142.27832  139.27568  135.36168  130.68526  125.75618  121.84164
   5   144.48170  142.45683  139.49336  135.64720  131.08162  126.32895  122.66905
   6   144.64977  142.61131  139.64340  135.78214  131.16350  126.28803  122.46567
   7   144.80321  142.74022  139.74454  135.82334  131.05162  125.80741  121.27908
   8   144.93865  142.85229  139.83907  135.89701  131.09050  125.78913  121.19771
   9   145.04445  142.94381  139.93380  136.02505  131.32222  126.28791  122.23415
  10   145.10348  142.99695  139.99509  136.11908  131.49650  126.61524  122.74415

 HEAD WILL BE SAVED ON UNIT 1017 AT END OF TIME STEP    1, STRESS PERIOD    2
1
  DRAWDOWN IN LAYER   1 AT END OF TIME STEP   1 IN STRESS PERIOD    2
  ---------------------------------------------------------------------------

            1           2           3           4           5           6           7           8
            9          10          11          12          13          14          15
 ................................................................................................
   1  -3.1032E+01 -3.4459E+01 -3.8505E+01 -4.1986E+01 -4.4646E+01 -4.6379E+01 -4.7171E+01 -4.7017E+01
      -4.5899E+01 -4.3766E+01 -4.0521E+01 -3.5975E+01 -2.9507E+01 -2.0178E+01 -5.6917E+00
   2  -2.5742E+01 -3.2201E+01 -3.7699E+01 -4.1716E+01 -4.4571E+01 -4.6377E+01 -4.7199E+01 -4.7061E+01
      -4.5960E+01 -4.3857E+01 -4.0668E+01 -3.6236E+01 -2.9998E+01 -2.1070E+01 -6.7857E+00
   3  -9.6013E+00 -2.8767E+01 -3.6800E+01 -4.1474E+01 -4.4535E+01 -4.6415E+01 -4.7266E+01 -4.7148E+01
      -4.6072E+01 -4.4014E+01 -4.0916E+01 -3.6676E+01 -3.0892E+01 -2.3198E+01 -1.3402E+01
   4  -2.4484E+01 -3.1444E+01 -3.7380E+01 -4.1664E+01 -4.4660E+01 -4.6532E+01 -4.7386E+01 -4.7274E+01
      -4.6216E+01 -4.4197E+01 -4.1179E+01 -3.7096E+01 -3.1625E+01 -2.4465E+01 -1.4884E+01
   5  -2.8242E+01 -3.2931E+01 -3.7978E+01 -4.1987E+01 -4.4890E+01 -4.6721E+01 -4.7552E+01 -4.7430E+01
      -4.6373E+01 -4.4371E+01 -4.1393E+01 -3.7387E+01 -3.2085E+01 -2.5374E+01 -1.7428E+01
   6  -2.5219E+01 -3.2217E+01 -3.8089E+01 -4.2284E+01 -4.5181E+01 -4.6967E+01 -4.7755E+01 -4.7603E+01
      -4.6529E+01 -4.4518E+01 -4.1528E+01 -3.7485E+01 -3.2065E+01 -2.5065E+01 -1.6805E+01
   7  -1.1305E+01 -3.0471E+01 -3.8286E+01 -4.2735E+01 -4.5574E+01 -4.7268E+01 -4.7984E+01 -4.7783E+01
      -4.6676E+01 -4.4639E+01 -4.1609E+01 -3.7460E+01 -3.1696E+01 -2.3455E+01 -1.0032E+01
   8  -2.9151E+01 -3.5149E+01 -4.0065E+01 -4.3643E+01 -4.6109E+01 -4.7611E+01 -4.8219E+01 -4.7954E+01
      -4.6809E+01 -4.4748E+01 -4.1697E+01 -3.7518E+01 -3.1695E+01 -2.3339E+01 -9.7988E+00
   9  -3.6286E+01 -3.8831E+01 -4.1872E+01 -4.4574E+01 -4.6624E+01 -4.7918E+01 -4.8416E+01 -4.8092E+01
      -4.6915E+01 -4.4840E+01 -4.1799E+01 -3.7682E+01 -3.2101E+01 -2.4673E+01 -1.5194E+01
  10  -3.9066E+01 -4.0627E+01 -4.2892E+01 -4.5131E+01 -4.6934E+01 -4.8100E+01 -4.8530E+01 -4.8170E+01
      -4.6974E+01 -4.4895E+01 -4.1867E+01 -3.7801E+01 -3.2363E+01 -2.5252E+01 -1.6036E+01
1
  DRAWDOWN IN LAYER   2 AT END OF TIME STEP   1 IN STRESS PERIOD    2
  ---------------------------------------------------------------------------

            1           2           3           4           5           6           7           8
            9          10          11          12          13          14          15
 ................................................................................................
   1  -3.2004E+01 -3.4266E+01 -3.7421E+01 -4.0475E+01 -4.2939E+01 -4.4594E+01 -4.5349E+01 -4.5159E+01
      -4.3986E+01 -4.1842E+01 -3.8638E+01 -3.4347E+01 -2.9008E+01 -2.3022E+01 -1.7822E+01
   2  -3.0228E+01 -3.3275E+01 -3.6982E+01 -4.0309E+01 -4.2894E+01 -4.4600E+01 -4.5378E+01 -4.5189E+01
      -4.3932E+01 -4.1917E+01 -3.8777E+01 -3.4582E+01 -2.9405E+01 -2.3661E+01 -1.8700E+01
   3  -2.7648E+01 -3.2161E+01 -3.6564E+01 -4.0183E+01 -4.2889E+01 -4.4644E+01 -4.5450E+01 -4.5293E+01
      -4.4164E+01 -4.2089E+01 -3.9017E+01 -3.4971E+01 -3.0072E+01 -2.4816E+01 -2.0586E+01
   4  -2.9579E+01 -3.2853E+01 -3.6814E+01 -4.0322E+01 -4.3006E+01 -4.4734E+01 -4.5567E+01 -4.5417E+01
      -4.4326E+01 -4.2278E+01 -3.9276E+01 -3.5362E+01 -3.0685E+01 -2.5756E+01 -2.1842E+01
   5  -3.0782E+01 -3.3563E+01 -3.7233E+01 -4.0612E+01 -4.3238E+01 -4.4955E+01 -4.5733E+01 -4.5518E+01
      -4.4482E+01 -4.2457E+01 -3.9493E+01 -3.5647E+01 -3.1082E+01 -2.6329E+01 -2.2669E+01
   6  -3.0473E+01 -3.3702E+01 -3.7570E+01 -4.0968E+01 -4.3548E+01 -4.5214E+01 -4.5949E+01 -4.5754E+01
      -4.4650E+01 -4.2611E+01 -3.9643E+01 -3.5782E+01 -3.1164E+01 -2.6288E+01 -2.2466E+01
   7  -2.9561E+01 -3.3945E+01 -3.8118E+01 -4.1483E+01 -4.3955E+01 -4.5521E+01 -4.6184E+01 -4.5946E+01
      -4.4803E+01 -4.2740E+01 -3.9745E+01 -3.5823E+01 -3.1052E+01 -2.5807E+01 -2.1279E+01
   8  -3.3394E+01 -3.6137E+01 -3.9390E+01 -4.2266E+01 -4.4457E+01 -4.5856E+01 -4.6418E+01 -4.6119E+01
      -4.4939E+01 -4.2852E+01 -3.9839E+01 -3.5897E+01 -3.1090E+01 -2.5789E+01 -2.1198E+01
   9  -3.6605E+01 -3.8311E+01 -4.0704E+01 -4.3044E+01 -4.4928E+01 -4.6151E+01 -4.6613E+01 -4.6257E+01
      -4.5044E+01 -4.2944E+01 -3.9934E+01 -3.6025E+01 -3.1322E+01 -2.6288E+01 -2.2234E+01
  10  -3.8270E+01 -3.9537E+01 -4.1486E+01 -4.3516E+01 -4.5210E+01 -4.6324E+01 -4.6725E+01 -4.6334E+01
      -4.5103E+01 -4.2997E+01 -3.9995E+01 -3.6119E+01 -3.1497E+01 -2.6615E+01 -2.2744E+01

 IBOUND WILL BE SAVED ON UNIT 1018 AT END OF TIME STEP    1, STRESS PERIOD    2
1
  VOLUME BUDGET FOR ENTIRE MODEL AT END OF TIME STEP    1, STRESS PERIOD   2
  ------------------------------------------------------------------------------

     CUMULATIVE VOLUME      L**3       RATES FOR THIS TIME STEP      L**3/T
     ------------------                 ------------------------

           IN:                                      IN:
           ---                                      ---
             STORAGE =         119.9914               STORAGE =         119.9914
    WELLS NEAR RIVER =           0.0000      WELLS NEAR RIVER =           0.0000
               RIVER =           0.0000                 RIVER =           0.0000
           GHB LAKES =           0.0000             GHB LAKES =           0.0000
            RECHARGE =      150625.0000              RECHARGE =       75468.7500
             ET SEGS =           0.0000               ET SEGS =           0.0000

            TOTAL IN =      150744.9914              TOTAL IN =       75588.7414

          OUT:                                     OUT:
          ----                                     ----
             STORAGE =        9103.9381               STORAGE =        9103.9381
    WELLS NEAR RIVER =          70.0000      WELLS NEAR RIVER =          70.0000
               RIVER =       66805.6627                 RIVER =       30118.3727
           GHB LAKES =       58841.7055             GHB LAKES =       29455.7147
            RECHARGE =           0.0000              RECHARGE =           0.0000
             ET SEGS =       15923.6859               ET SEGS =        6840.7159

           TOTAL OUT =      150744.9922             TOTAL OUT =       75588.7414

            IN - OUT =      -8.0580E-04              IN - OUT =      -4.4067E-06

 PERCENT DISCREPANCY =          -0.00     PERCENT DISCREPANCY =          -0.00






         TIME SUMMARY AT END OF TIME STEP    1 IN STRESS PERIOD    2
                    SECONDS     MINUTES      HOURS       DAYS        YEARS
                    -----------------------------------------------------------
   TIME STEP LENGTH  86400.      1440.0      24.000     1.00000     2.73785E-03
 STRESS PERIOD TIME  86400.      1440.0      24.000     1.00000     2.73785E-03
         TOTAL TIME 1.72800E+05  2880.0      48.000      2.0000     5.47570E-03
WEL   no.    1 value from time series:   0.0000     for time:  2.000     to  3.000    
WEL   no.    2 value from time series:   0.0000     for time:  2.000     to  3.000    
RIV   no.    1 value from time series:   104.00     for time:  2.000     to  3.000    
RIV   no.    2 value from time series:   104.00     for time:  2.000     to  3.000    
RIV   no.    3 value from time series:   112.40     for time:  2.000     to  3.000    
RIV   no.    4 value from time series:   112.40     for time:  2.000     to  3.000    
RIV   no.    5 value from time series:   116.45     for time:  2.000     to  3.000    
RIV   no.    6 value from time series:   116.45     for time:  2.000     to  3.000    
RIV   no.    7 value from time series:   106.45     for time:  2.000     to  3.000    
RIV   no.    8 value from time series:   106.45     for time:  2.000     to  3.000    
RIV   no.    9 value from time series:   114.00     for time:  2.000     to  3.000    
RIV   no.   10 value from time series:   114.00     for time:  2.000     to  3.000    
WEL   no.    1 value from time series:   0.0000     for time:  2.000     to  3.000    
WEL   no.    2 value from time series:   0.0000     for time:  2.000     to  3.000    
RIV   no.    1 value from time series:   104.00     for time:  2.000     to  3.000    
RIV   no.    2 value from time series:   104.00     for time:  2.000     to  3.000    
RIV   no.    3 value from time series:   112.40     for time:  2.000     to  3.000    
RIV   no.    4 value from time series:   112.40     for time:  2.000     to  3.000    
RIV   no.    5 value from time series:   116.45     for time:  2.000     to  3.000    
RIV   no.    6 value from time series:   116.45     for time:  2.000     to  3.000    
RIV   no.    7 value from time series:   106.45     for time:  2.000     to  3.000    
RIV   no.    8 value from time series:   106.45     for time:  2.000     to  3.000    
RIV   no.    9 value from time series:   114.00     for time:  2.000     to  3.000    
RIV   no.   10 value from time series:   114.00     for time:  2.000     to  3.000    

 OUTPUT CONTROL FOR STRESS PERIOD    2   TIME STEP    2
    SAVE BUDGET
    SAVE HEAD
    SAVE HEAD FOR ALL LAYERS
 UBDSV1 SAVING          STORAGE ON UNIT   1016 AT TIME STEP      2, STRESS PERIOD      2
 UBDSV1 SAVING FLOW RIGHT FACE  ON UNIT   1016 AT TIME STEP      2, STRESS PERIOD      2
 UBDSV1 SAVING FLOW FRONT FACE  ON UNIT   1016 AT TIME STEP      2, STRESS PERIOD      2
 UBDSV1 SAVING FLOW LOWER FACE  ON UNIT   1016 AT TIME STEP      2, STRESS PERIOD      2
 UBDSV4 SAVING WELLS NEAR RIVER ON UNIT   1016 AT TIME STEP      2, STRESS PERIOD      2

 WELLS NEAR RIVER   PERIOD  2   STEP  2
 BOUNDARY      1   LAYER   2   ROW     3   COL     4   RATE     0.00000      WELL_1
 BOUNDARY      2   LAYER   2   ROW     8   COL     4   RATE     0.00000      WELL_2
 BOUNDARY      3   LAYER   2   ROW     4   COL     6   RATE   -10.00000    
 BOUNDARY      4   LAYER   2   ROW     5   COL     8   RATE    -20.0000    
 BOUNDARY      5   LAYER   2   ROW     2   COL     9   RATE    -40.0000    
 UBDSV4 SAVING RIVER            ON UNIT   1016 AT TIME STEP      2, STRESS PERIOD      2

 RIVER              PERIOD  2   STEP  2
 BOUNDARY      1   LAYER   1   ROW     1   COL    15   RATE    -1807.61    
 BOUNDARY      2   LAYER   1   ROW     2   COL    15   RATE    -2905.17      RIV2
 BOUNDARY      3   LAYER   1   ROW     3   COL    15   RATE    -1049.45      RIV3
 BOUNDARY      4   LAYER   1   ROW     4   COL    15   RATE    -2537.86    
 BOUNDARY      5   LAYER   1   ROW     5   COL    15   RATE    -1024.69    
 BOUNDARY      6   LAYER   1   ROW     6   COL    15   RATE    -399.726    
 BOUNDARY      7   LAYER   1   ROW     7   COL    15   RATE    -3699.36      RIVX
 BOUNDARY      8   LAYER   1   ROW     8   COL    15   RATE    -3467.93      RIVX
 BOUNDARY      9   LAYER   1   ROW     9   COL    15   RATE    -1243.92      RIVX
 BOUNDARY     10   LAYER   1   ROW    10   COL    15   RATE    -2094.80    

 GHB LAKES          PERIOD  2   STEP  2
 BOUNDARY      1   LAYER   1   ROW     3   COL     1   RATE    -14420.4    
 BOUNDARY      2   LAYER   1   ROW     7   COL     1   RATE    -1827.13      GHB2_UPPER
 BOUNDARY      3   LAYER   1   ROW     7   COL     1   RATE    -13204.2      GHB2_LOWER
 UBDSV4 SAVING RECHARGE         ON UNIT   1016 AT TIME STEP      2, STRESS PERIOD      2

 RECHARGE           PERIOD  2   STEP  2
 BOUNDARY      1   LAYER   1   ROW     1   COL     1   RATE     505.208    
 BOUNDARY      2   LAYER   1   ROW     1   COL     2   RATE     505.208    
 BOUNDARY      3   LAYER   1   ROW     1   COL     3   RATE     505.208    
 BOUNDARY      4   LAYER   1   ROW     1   COL     4   RATE     505.208    
 BOUNDARY      5   LAYER   1   ROW     1   COL     5   RATE     505.208    
 BOUNDARY      6   LAYER   1   ROW     1   COL     6   RATE     505.208    
 BOUNDARY      7   LAYER   1   ROW     1   COL     7   RATE     505.208    
 BOUNDARY      8   LAYER   1   ROW     1   COL     8   RATE     505.208    
 BOUNDARY      9   LAYER   1   ROW     1   COL     9   RATE     505.208    
 BOUNDARY     10   LAYER   1   ROW     1   COL    10   RATE     505.208    
 BOUNDARY     11   LAYER   1   ROW     1   COL    11   RATE     505.208    
 BOUNDARY     12   LAYER   1   ROW     1   COL    12   RATE     505.208    
 BOUNDARY     13   LAYER   1   ROW     1   COL    13   RATE     505.208    
 BOUNDARY     14   LAYER   1   ROW     1   COL    14   RATE     505.208    
 BOUNDARY     15   LAYER   1   ROW     1   COL    15   RATE     505.208    
 BOUNDARY     16   LAYER   1   ROW     2   COL     1   RATE     505.208    
 BOUNDARY     17   LAYER   1   ROW     2   COL     2   RATE     505.208    
 BOUNDARY     18   LAYER   1   ROW     2   COL     3   RATE     505.208    
 BOUNDARY     19   LAYER   1   ROW     2   COL     4   RATE     505.208    
 BOUNDARY     20   LAYER   1   ROW     2   COL     5   RATE     505.208    
 BOUNDARY     21   LAYER   1   ROW     2   COL     6   RATE     505.208    
 BOUNDARY     22   LAYER   1   ROW     2   COL     7   RATE     505.208    
 BOUNDARY     23   LAYER   1   ROW     2   COL     8   RATE     505.208    
 BOUNDARY     24   LAYER   1   ROW     2   COL     9   RATE     505.208    
 BOUNDARY     25   LAYER   1   ROW     2   COL    10   RATE     505.208    
 BOUNDARY     26   LAYER   1   ROW     2   COL    11   RATE     505.208    
 BOUNDARY     27   LAYER   1   ROW     2   COL    12   RATE     505.208    
 BOUNDARY     28   LAYER   1   ROW     2   COL    13   RATE     505.208    
 BOUNDARY     29   LAYER   1   ROW     2   COL    14   RATE     505.208    
 BOUNDARY     30   LAYER   1   ROW     2   COL    15   RATE     505.208    
 BOUNDARY     31   LAYER   1   ROW     3   COL     1   RATE     505.208    
 BOUNDARY     32   LAYER   1   ROW     3   COL     2   RATE     505.208    
 BOUNDARY     33   LAYER   1   ROW     3   COL     3   RATE     505.208    
 BOUNDARY     34   LAYER   1   ROW     3   COL     4   RATE     505.208    
 BOUNDARY     35   LAYER   1   ROW     3   COL     5   RATE     505.208    
 BOUNDARY     36   LAYER   1   ROW     3   COL     6   RATE     505.208    
 BOUNDARY     37   LAYER   1   ROW     3   COL     7   RATE     505.208    
 BOUNDARY     38   LAYER   1   ROW     3   COL     8   RATE     505.208    
 BOUNDARY     39   LAYER   1   ROW     3   COL     9   RATE     505.208    
 BOUNDARY     40   LAYER   1   ROW     3   COL    10   RATE     505.208    
 BOUNDARY     41   LAYER   1   ROW     3   COL    11   RATE     505.208    
 BOUNDARY     42   LAYER   1   ROW     3   COL    12   RATE     505.208    
 BOUNDARY     43   LAYER   1   ROW     3   COL    13   RATE     505.208    
 BOUNDARY     44   LAYER   1   ROW     3   COL    14   RATE     505.208    
 BOUNDARY     45   LAYER   1   ROW     3   COL    15   RATE     505.208    
 BOUNDARY     46   LAYER   1   ROW     4   COL     1   RATE     505.208    
 BOUNDARY     47   LAYER   1   ROW     4   COL     2   RATE     505.208    
 BOUNDARY     48   LAYER   1   ROW     4   COL     3   RATE     505.208    
 BOUNDARY     49   LAYER   1   ROW     4   COL     4   RATE     505.208    
 BOUNDARY     50   LAYER   1   ROW     4   COL     5   RATE     505.208    
 BOUNDARY     51   LAYER   1   ROW     4   COL     6   RATE     505.208    
 BOUNDARY     52   LAYER   1   ROW     4   COL     7   RATE     505.208    
 BOUNDARY     53   LAYER   1   ROW     4   COL     8   RATE     505.208    
 BOUNDARY     54   LAYER   1   ROW     4   COL     9   RATE     505.208    
 BOUNDARY     55   LAYER   1   ROW     4   COL    10   RATE     505.208    
 BOUNDARY     56   LAYER   1   ROW     4   COL    11   RATE     505.208    
 BOUNDARY     57   LAYER   1   ROW     4   COL    12   RATE     505.208    
 BOUNDARY     58   LAYER   1   ROW     4   COL    13   RATE     505.208    
 BOUNDARY     59   LAYER   1   ROW     4   COL    14   RATE     505.208    
 BOUNDARY     60   LAYER   1   ROW     4   COL    15   RATE     505.208    
 BOUNDARY     61   LAYER   1   ROW     5   COL     1   RATE     505.208    
 BOUNDARY     62   LAYER   1   ROW     5   COL     2   RATE     505.208    
 BOUNDARY     63   LAYER   1   ROW     5   COL     3   RATE     505.208    
 BOUNDARY     64   LAYER   1   ROW     5   COL     4   RATE     505.208    
 BOUNDARY     65   LAYER   1   ROW     5   COL     5   RATE     505.208    
 BOUNDARY     66   LAYER   1   ROW     5   COL     6   RATE     505.208    
 BOUNDARY     67   LAYER   1   ROW     5   COL     7   RATE     505.208    
 BOUNDARY     68   LAYER   1   ROW     5   COL     8   RATE     505.208    
 BOUNDARY     69   LAYER   1   ROW     5   COL     9   RATE     505.208    
 BOUNDARY     70   LAYER   1   ROW     5   COL    10   RATE     505.208    
 BOUNDARY     71   LAYER   1   ROW     5   COL    11   RATE     505.208    
 BOUNDARY     72   LAYER   1   ROW     5   COL    12   RATE     505.208    
 BOUNDARY     73   LAYER   1   ROW     5   COL    13   RATE     505.208    
 BOUNDARY     74   LAYER   1   ROW     5   COL    14   RATE     505.208    
 BOUNDARY     75   LAYER   1   ROW     5   COL    15   RATE     505.208    
 BOUNDARY     76   LAYER   1   ROW     6   COL     1   RATE     505.208    
 BOUNDARY     77   LAYER   1   ROW     6   COL     2   RATE     505.208    
 BOUNDARY     78   LAYER   1   ROW     6   COL     3   RATE     505.208    
 BOUNDARY     79   LAYER   1   ROW     6   COL     4   RATE     505.208    
 BOUNDARY     80   LAYER   1   ROW     6   COL     5   RATE     505.208    
 BOUNDARY     81   LAYER   1   ROW     6   COL     6   RATE     505.208    
 BOUNDARY     82   LAYER   1   ROW     6   COL     7   RATE     505.208    
 BOUNDARY     83   LAYER   1   ROW     6   COL     8   RATE     505.208    
 BOUNDARY     84   LAYER   1   ROW     6   COL     9   RATE     505.208    
 BOUNDARY     85   LAYER   1   ROW     6   COL    10   RATE     505.208    
 BOUNDARY     86   LAYER   1   ROW     6   COL    11   RATE     505.208    
 BOUNDARY     87   LAYER   1   ROW     6   COL    12   RATE     505.208    
 BOUNDARY     88   LAYER   1   ROW     6   COL    13   RATE     505.208    
 BOUNDARY     89   LAYER   1   ROW     6   COL    14   RATE     505.208    
 BOUNDARY     90   LAYER   1   ROW     6   COL    15   RATE     505.208    
 BOUNDARY     91   LAYER   1   ROW     7   COL     1   RATE     505.208    
 BOUNDARY     92   LAYER   1   ROW     7   COL     2   RATE     505.208    
 BOUNDARY     93   LAYER   1   ROW     7   COL     3   RATE     505.208    
 BOUNDARY     94   LAYER   1   ROW     7   COL     4   RATE     505.208    
 BOUNDARY     95   LAYER   1   ROW     7   COL     5   RATE     505.208    
 BOUNDARY     96   LAYER   1   ROW     7   COL     6   RATE     505.208    
 BOUNDARY     97   LAYER   1   ROW     7   COL     7   RATE     505.208    
 BOUNDARY     98   LAYER   1   ROW     7   COL     8   RATE     505.208    
 BOUNDARY     99   LAYER   1   ROW     7   COL     9   RATE     505.208    
 BOUNDARY    100   LAYER   1   ROW     7   COL    10   RATE     505.208    
 BOUNDARY    101   LAYER   1   ROW     7   COL    11   RATE     505.208    
 BOUNDARY    102   LAYER   1   ROW     7   COL    12   RATE     505.208    
 BOUNDARY    103   LAYER   1   ROW     7   COL    13   RATE     505.208    
 BOUNDARY    104   LAYER   1   ROW     7   COL    14   RATE     505.208    
 BOUNDARY    105   LAYER   1   ROW     7   COL    15   RATE     505.208    
 BOUNDARY    106   LAYER   1   ROW     8   COL     1   RATE     505.208    
 BOUNDARY    107   LAYER   1   ROW     8   COL     2   RATE     505.208    
 BOUNDARY    108   LAYER   1   ROW     8   COL     3   RATE     505.208    
 BOUNDARY    109   LAYER   1   ROW     8   COL     4   RATE     505.208    
 BOUNDARY    110   LAYER   1   ROW     8   COL     5   RATE     505.208    
 BOUNDARY    111   LAYER   1   ROW     8   COL     6   RATE     505.208    
 BOUNDARY    112   LAYER   1   ROW     8   COL     7   RATE     505.208    
 BOUNDARY    113   LAYER   1   ROW     8   COL     8   RATE     505.208    
 BOUNDARY    114   LAYER   1   ROW     8   COL     9   RATE     505.208    
 BOUNDARY    115   LAYER   1   ROW     8   COL    10   RATE     505.208    
 BOUNDARY    116   LAYER   1   ROW     8   COL    11   RATE     505.208    
 BOUNDARY    117   LAYER   1   ROW     8   COL    12   RATE     505.208    
 BOUNDARY    118   LAYER   1   ROW     8   COL    13   RATE     505.208    
 BOUNDARY    119   LAYER   1   ROW     8   COL    14   RATE     505.208    
 BOUNDARY    120   LAYER   1   ROW     8   COL    15   RATE     505.208    
 BOUNDARY    121   LAYER   1   ROW     9   COL     1   RATE     505.208    
 BOUNDARY    122   LAYER   1   ROW     9   COL     2   RATE     505.208    
 BOUNDARY    123   LAYER   1   ROW     9   COL     3   RATE     505.208    
 BOUNDARY    124   LAYER   1   ROW     9   COL     4   RATE     505.208    
 BOUNDARY    125   LAYER   1   ROW     9   COL     5   RATE     505.208    
 BOUNDARY    126   LAYER   1   ROW     9   COL     6   RATE     505.208    
 BOUNDARY    127   LAYER   1   ROW     9   COL     7   RATE     505.208    
 BOUNDARY    128   LAYER   1   ROW     9   COL     8   RATE     505.208    
 BOUNDARY    129   LAYER   1   ROW     9   COL     9   RATE     505.208    
 BOUNDARY    130   LAYER   1   ROW     9   COL    10   RATE     505.208    
 BOUNDARY    131   LAYER   1   ROW     9   COL    11   RATE     505.208    
 BOUNDARY    132   LAYER   1   ROW     9   COL    12   RATE     505.208    
 BOUNDARY    133   LAYER   1   ROW     9   COL    13   RATE     505.208    
 BOUNDARY    134   LAYER   1   ROW     9   COL    14   RATE     505.208    
 BOUNDARY    135   LAYER   1   ROW     9   COL    15   RATE     505.208    
 BOUNDARY    136   LAYER   1   ROW    10   COL     1   RATE     505.208    
 BOUNDARY    137   LAYER   1   ROW    10   COL     2   RATE     505.208    
 BOUNDARY    138   LAYER   1   ROW    10   COL     3   RATE     505.208    
 BOUNDARY    139   LAYER   1   ROW    10   COL     4   RATE     505.208    
 BOUNDARY    140   LAYER   1   ROW    10   COL     5   RATE     505.208    
 BOUNDARY    141   LAYER   1   ROW    10   COL     6   RATE     505.208    
 BOUNDARY    142   LAYER   1   ROW    10   COL     7   RATE     505.208    
 BOUNDARY    143   LAYER   1   ROW    10   COL     8   RATE     505.208    
 BOUNDARY    144   LAYER   1   ROW    10   COL     9   RATE     505.208    
 BOUNDARY    145   LAYER   1   ROW    10   COL    10   RATE     505.208    
 BOUNDARY    146   LAYER   1   ROW    10   COL    11   RATE     505.208    
 BOUNDARY    147   LAYER   1   ROW    10   COL    12   RATE     505.208    
 BOUNDARY    148   LAYER   1   ROW    10   COL    13   RATE     505.208    
 BOUNDARY    149   LAYER   1   ROW    10   COL    14   RATE     505.208    
 BOUNDARY    150   LAYER   1   ROW    10   COL    15   RATE     505.208    
 UBDSV4 SAVING ET SEGS          ON UNIT   1016 AT TIME STEP      2, STRESS PERIOD      2

 ET SEGS            PERIOD  2   STEP  2
 BOUNDARY      1   LAYER   1   ROW     1   COL     1   RATE    -1.55978    
 BOUNDARY      2   LAYER   1   ROW     1   COL     2   RATE    -6.73516    
 BOUNDARY      3   LAYER   1   ROW     1   COL     3   RATE    -36.0107    
 BOUNDARY      4   LAYER   1   ROW     1   COL     4   RATE    -75.5208    
 BOUNDARY      5   LAYER   1   ROW     1   COL     5   RATE    -75.5208    
 BOUNDARY      6   LAYER   1   ROW     1   COL     6   RATE    -75.5208    
 BOUNDARY      7   LAYER   1   ROW     1   COL     7   RATE    -75.5208    
 BOUNDARY      8   LAYER   1   ROW     1   COL     8   RATE    -75.5208    
 BOUNDARY      9   LAYER   1   ROW     1   COL     9   RATE    -75.5208    
 BOUNDARY     10   LAYER   1   ROW     1   COL    10   RATE    -75.5208    
 BOUNDARY     11   LAYER   1   ROW     1   COL    11   RATE    -75.5208    
 BOUNDARY     12   LAYER   1   ROW     1   COL    12   RATE    -12.4604    
 BOUNDARY     13   LAYER   1   ROW     1   COL    13   RATE     0.00000    
 BOUNDARY     14   LAYER   1   ROW     1   COL    14   RATE     0.00000    
 BOUNDARY     15   LAYER   1   ROW     1   COL    15   RATE     0.00000    
 BOUNDARY     16   LAYER   1   ROW     2   COL     1   RATE     0.00000    
 BOUNDARY     17   LAYER   1   ROW     2   COL     2   RATE    -3.32514    
 BOUNDARY     18   LAYER   1   ROW     2   COL     3   RATE    -21.1417    
 BOUNDARY     19   LAYER   1   ROW     2   COL     4   RATE    -75.5208    
 BOUNDARY     20   LAYER   1   ROW     2   COL     5   RATE    -75.5208    
 BOUNDARY     21   LAYER   1   ROW     2   COL     6   RATE    -75.5208    
 BOUNDARY     22   LAYER   1   ROW     2   COL     7   RATE    -75.5208    
 BOUNDARY     23   LAYER   1   ROW     2   COL     8   RATE    -75.5208    
 BOUNDARY     24   LAYER   1   ROW     2   COL     9   RATE    -75.5208    
 BOUNDARY     25   LAYER   1   ROW     2   COL    10   RATE    -75.5208    
 BOUNDARY     26   LAYER   1   ROW     2   COL    11   RATE    -75.5208    
 BOUNDARY     27   LAYER   1   ROW     2   COL    12   RATE    -13.7745    
 BOUNDARY     28   LAYER   1   ROW     2   COL    13   RATE     0.00000    
 BOUNDARY     29   LAYER   1   ROW     2   COL    14   RATE     0.00000    
 BOUNDARY     30   LAYER   1   ROW     2   COL    15   RATE     0.00000    
 BOUNDARY     31   LAYER   1   ROW     3   COL     1   RATE     0.00000    
 BOUNDARY     32   LAYER   1   ROW     3   COL     2   RATE     0.00000    
 BOUNDARY     33   LAYER   1   ROW     3   COL     3   RATE    -16.6184    
 BOUNDARY     34   LAYER   1   ROW     3   COL     4   RATE    -75.5208    
 BOUNDARY     35   LAYER   1   ROW     3   COL     5   RATE    -75.5208    
 BOUNDARY     36   LAYER   1   ROW     3   COL     6   RATE    -75.5208    
 BOUNDARY     37   LAYER   1   ROW     3   COL     7   RATE    -75.5208    
 BOUNDARY     38   LAYER   1   ROW     3   COL     8   RATE    -75.5208    
 BOUNDARY     39   LAYER   1   ROW     3   COL     9   RATE    -75.5208    
 BOUNDARY     40   LAYER   1   ROW     3   COL    10   RATE    -75.5208    
 BOUNDARY     41   LAYER   1   ROW     3   COL    11   RATE    -75.5208    
 BOUNDARY     42   LAYER   1   ROW     3   COL    12   RATE    -15.9908    
 BOUNDARY     43   LAYER   1   ROW     3   COL    13   RATE    -1.34767    
 BOUNDARY     44   LAYER   1   ROW     3   COL    14   RATE     0.00000    
 BOUNDARY     45   LAYER   1   ROW     3   COL    15   RATE     0.00000    
 BOUNDARY     46   LAYER   1   ROW     4   COL     1   RATE     0.00000    
 BOUNDARY     47   LAYER   1   ROW     4   COL     2   RATE    -2.18177    
 BOUNDARY     48   LAYER   1   ROW     4   COL     3   RATE    -19.5376    
 BOUNDARY     49   LAYER   1   ROW     4   COL     4   RATE    -75.5208    
 BOUNDARY     50   LAYER   1   ROW     4   COL     5   RATE    -75.5208    
 BOUNDARY     51   LAYER   1   ROW     4   COL     6   RATE    -75.5208    
 BOUNDARY     52   LAYER   1   ROW     4   COL     7   RATE    -75.5208    
 BOUNDARY     53   LAYER   1   ROW     4   COL     8   RATE    -75.5208    
 BOUNDARY     54   LAYER   1   ROW     4   COL     9   RATE    -75.5208    
 BOUNDARY     55   LAYER   1   ROW     4   COL    10   RATE    -75.5208    
 BOUNDARY     56   LAYER   1   ROW     4   COL    11   RATE    -75.5208    
 BOUNDARY     57   LAYER   1   ROW     4   COL    12   RATE    -18.1065    
 BOUNDARY     58   LAYER   1   ROW     4   COL    13   RATE    -2.45511    
 BOUNDARY     59   LAYER   1   ROW     4   COL    14   RATE     0.00000    
 BOUNDARY     60   LAYER   1   ROW     4   COL    15   RATE     0.00000    
 BOUNDARY     61   LAYER   1   ROW     5   COL     1   RATE     0.00000    
 BOUNDARY     62   LAYER   1   ROW     5   COL     2   RATE    -4.42729    
 BOUNDARY     63   LAYER   1   ROW     5   COL     3   RATE    -22.5494    
 BOUNDARY     64   LAYER   1   ROW     5   COL     4   RATE    -75.5208    
 BOUNDARY     65   LAYER   1   ROW     5   COL     5   RATE    -75.5208    
 BOUNDARY     66   LAYER   1   ROW     5   COL     6   RATE    -75.5208    
 BOUNDARY     67   LAYER   1   ROW     5   COL     7   RATE    -75.5208    
 BOUNDARY     68   LAYER   1   ROW     5   COL     8   RATE    -75.5208    
 BOUNDARY     69   LAYER   1   ROW     5   COL     9   RATE    -75.5208    
 BOUNDARY     70   LAYER   1   ROW     5   COL    10   RATE    -75.5208    
 BOUNDARY     71   LAYER   1   ROW     5   COL    11   RATE    -75.5208    
 BOUNDARY     72   LAYER   1   ROW     5   COL    12   RATE    -19.5736    
 BOUNDARY     73   LAYER   1   ROW     5   COL    13   RATE    -3.15024    
 BOUNDARY     74   LAYER   1   ROW     5   COL    14   RATE     0.00000    
 BOUNDARY     75   LAYER   1   ROW     5   COL    15   RATE     0.00000    
 BOUNDARY     76   LAYER   1   ROW     6   COL     1   RATE     0.00000    
 BOUNDARY     77   LAYER   1   ROW     6   COL     2   RATE    -3.34884    
 BOUNDARY     78   LAYER   1   ROW     6   COL     3   RATE    -25.0202    
 BOUNDARY     79   LAYER   1   ROW     6   COL     4   RATE    -75.5208    
 BOUNDARY     80   LAYER   1   ROW     6   COL     5   RATE    -75.5208    
 BOUNDARY     81   LAYER   1   ROW     6   COL     6   RATE    -75.5208    
 BOUNDARY     82   LAYER   1   ROW     6   COL     7   RATE    -75.5208    
 BOUNDARY     83   LAYER   1   ROW     6   COL     8   RATE    -75.5208    
 BOUNDARY     84   LAYER   1   ROW     6   COL     9   RATE    -75.5208    
 BOUNDARY     85   LAYER   1   ROW     6   COL    10   RATE    -75.5208    
 BOUNDARY     86   LAYER   1   ROW     6   COL    11   RATE    -75.5208    
 BOUNDARY     87   LAYER   1   ROW     6   COL    12   RATE    -20.0640    
 BOUNDARY     88   LAYER   1   ROW     6   COL    13   RATE    -3.11994    
 BOUNDARY     89   LAYER   1   ROW     6   COL    14   RATE     0.00000    
 BOUNDARY     90   LAYER   1   ROW     6   COL    15   RATE     0.00000    
 BOUNDARY     91   LAYER   1   ROW     7   COL     1   RATE     0.00000    
 BOUNDARY     92   LAYER   1   ROW     7   COL     2   RATE   -0.711893    
 BOUNDARY     93   LAYER   1   ROW     7   COL     3   RATE    -30.2252    
 BOUNDARY     94   LAYER   1   ROW     7   COL     4   RATE    -75.5208    
 BOUNDARY     95   LAYER   1   ROW     7   COL     5   RATE    -75.5208    
 BOUNDARY     96   LAYER   1   ROW     7   COL     6   RATE    -75.5208    
 BOUNDARY     97   LAYER   1   ROW     7   COL     7   RATE    -75.5208    
 BOUNDARY     98   LAYER   1   ROW     7   COL     8   RATE    -75.5208    
 BOUNDARY     99   LAYER   1   ROW     7   COL     9   RATE    -75.5208    
 BOUNDARY    100   LAYER   1   ROW     7   COL    10   RATE    -75.5208    
 BOUNDARY    101   LAYER   1   ROW     7   COL    11   RATE    -75.5208    
 BOUNDARY    102   LAYER   1   ROW     7   COL    12   RATE    -19.9390    
 BOUNDARY    103   LAYER   1   ROW     7   COL    13   RATE    -2.56184    
 BOUNDARY    104   LAYER   1   ROW     7   COL    14   RATE     0.00000    
 BOUNDARY    105   LAYER   1   ROW     7   COL    15   RATE     0.00000    
 BOUNDARY    106   LAYER   1   ROW     8   COL     1   RATE     0.00000    
 BOUNDARY    107   LAYER   1   ROW     8   COL     2   RATE    -8.30334    
 BOUNDARY    108   LAYER   1   ROW     8   COL     3   RATE    -75.5208    
 BOUNDARY    109   LAYER   1   ROW     8   COL     4   RATE    -75.5208    
 BOUNDARY    110   LAYER   1   ROW     8   COL     5   RATE    -75.5208    
 BOUNDARY    111   LAYER   1   ROW     8   COL     6   RATE    -75.5208    
 BOUNDARY    112   LAYER   1   ROW     8   COL     7   RATE    -75.5208    
 BOUNDARY    113   LAYER   1   ROW     8   COL     8   RATE    -75.5208    
 BOUNDARY    114   LAYER   1   ROW     8   COL     9   RATE    -75.5208    
 BOUNDARY    115   LAYER   1   ROW     8   COL    10   RATE    -75.5208    
 BOUNDARY    116   LAYER   1   ROW     8   COL    11   RATE    -75.5208    
 BOUNDARY    117   LAYER   1   ROW     8   COL    12   RATE    -20.2298    
 BOUNDARY    118   LAYER   1   ROW     8   COL    13   RATE    -2.56090    
 BOUNDARY    119   LAYER   1   ROW     8   COL    14   RATE     0.00000    
 BOUNDARY    120   LAYER   1   ROW     8   COL    15   RATE     0.00000    
 BOUNDARY    121   LAYER   1   ROW     9   COL     1   RATE    -14.0271    
 BOUNDARY    122   LAYER   1   ROW     9   COL     2   RATE    -44.6472    
 BOUNDARY    123   LAYER   1   ROW     9   COL     3   RATE    -75.5208    
 BOUNDARY    124   LAYER   1   ROW     9   COL     4   RATE    -75.5208    
 BOUNDARY    125   LAYER   1   ROW     9   COL     5   RATE    -75.5208    
 BOUNDARY    126   LAYER   1   ROW     9   COL     6   RATE    -75.5208    
 BOUNDARY    127   LAYER   1   ROW     9   COL     7   RATE    -75.5208    
 BOUNDARY    128   LAYER   1   ROW     9   COL     8   RATE    -75.5208    
 BOUNDARY    129   LAYER   1   ROW     9   COL     9   RATE    -75.5208    
 BOUNDARY    130   LAYER   1   ROW     9   COL    10   RATE    -75.5208    
 BOUNDARY    131   LAYER   1   ROW     9   COL    11   RATE    -75.5208    
 BOUNDARY    132   LAYER   1   ROW     9   COL    12   RATE    -21.0559    
 BOUNDARY    133   LAYER   1   ROW     9   COL    13   RATE    -3.17330    
 BOUNDARY    134   LAYER   1   ROW     9   COL    14   RATE     0.00000    
 BOUNDARY    135   LAYER   1   ROW     9   COL    15   RATE     0.00000    
 BOUNDARY    136   LAYER   1   ROW    10   COL     1   RATE    -50.8542    
 BOUNDARY    137   LAYER   1   ROW    10   COL     2   RATE    -75.5208    
 BOUNDARY    138   LAYER   1   ROW    10   COL     3   RATE    -75.5208    
 BOUNDARY    139   LAYER   1   ROW    10   COL     4   RATE    -75.5208    
 BOUNDARY    140   LAYER   1   ROW    10   COL     5   RATE    -75.5208    
 BOUNDARY    141   LAYER   1   ROW    10   COL     6   RATE    -75.5208    
 BOUNDARY    142   LAYER   1   ROW    10   COL     7   RATE    -75.5208    
 BOUNDARY    143   LAYER   1   ROW    10   COL     8   RATE    -75.5208    
 BOUNDARY    144   LAYER   1   ROW    10   COL     9   RATE    -75.5208    
 BOUNDARY    145   LAYER   1   ROW    10   COL    10   RATE    -75.5208    
 BOUNDARY    146   LAYER   1   ROW    10   COL    11   RATE    -75.5208    
 BOUNDARY    147   LAYER   1   ROW    10   COL    12   RATE    -21.6554    
 BOUNDARY    148   LAYER   1   ROW    10   COL    13   RATE    -3.56958    
 BOUNDARY    149   LAYER   1   ROW    10   COL    14   RATE     0.00000    
 BOUNDARY    150   LAYER   1   ROW    10   COL    15   RATE     0.00000    

 HEAD WILL BE SAVED ON UNIT 1017 AT END OF TIME STEP    2, STRESS PERIOD    2
WEL   no.    1 value from time series:   0.0000     for time:  3.000     to  4.000    
WEL   no.    2 value from time series:   0.0000     for time:  3.000     to  4.000    
RIV   no.    1 value from time series:   104.50     for time:  3.000     to  4.000    
RIV   no.    2 value from time series:   104.50     for time:  3.000     to  4.000    
RIV   no.    3 value from time series:   112.90     for time:  3.000     to  4.000    
RIV   no.    4 value from time series:   112.90     for time:  3.000     to  4.000    
RIV   no.    5 value from time series:   116.20     for time:  3.000     to  4.000    
RIV   no.    6 value from time series:   116.20     for time:  3.000     to  4.000    
RIV   no.    7 value from time series:   106.85     for time:  3.000     to  4.000    
RIV   no.    8 value from time series:   106.85     for time:  3.000     to  4.000    
RIV   no.    9 value from time series:   114.80     for time:  3.000     to  4.000    
RIV   no.   10 value from time series:   114.80     for time:  3.000     to  4.000    
WEL   no.    1 value from time series:   0.0000     for time:  3.000     to  4.000    
WEL   no.    2 value from time series:   0.0000     for time:  3.000     to  4.000    
RIV   no.    1 value from time series:   104.50     for time:  3.000     to  4.000    
RIV   no.    2 value from time series:   104.50     for time:  3.000     to  4.000    
RIV   no.    3 value from time series:   112.90     for time:  3.000     to  4.000    
RIV   no.    4 value from time series:   112.90     for time:  3.000     to  4.000    
RIV   no.    5 value from time series:   116.20     for time:  3.000     to  4.000    
RIV   no.    6 value from time series:   116.20     for time:  3.000     to  4.000    
RIV   no.    7 value from time series:   106.85     for time:  3.000     to  4.000    
RIV   no.    8 value from time series:   106.85     for time:  3.000     to  4.000    
RIV   no.    9 value from time series:   114.80     for time:  3.000     to  4.000    
RIV   no.   10 value from time series:   114.80     for time:  3.000     to  4.000    

 OUTPUT CONTROL FOR STRESS PERIOD    2   TIME STEP    3
    SAVE BUDGET
    SAVE HEAD
    SAVE HEAD FOR ALL LAYERS
    SAVE IBOUND
    SAVE IBOUND FOR ALL LAYERS
 UBDSV1 SAVING          STORAGE ON UNIT   1016 AT TIME STEP      3, STRESS PERIOD      2
 UBDSV1 SAVING FLOW RIGHT FACE  ON UNIT   1016 AT TIME STEP      3, STRESS PERIOD      2
 UBDSV1 SAVING FLOW FRONT FACE  ON UNIT   1016 AT TIME STEP      3, STRESS PERIOD      2
 UBDSV1 SAVING FLOW LOWER FACE  ON UNIT   1016 AT TIME STEP      3, STRESS PERIOD      2
 UBDSV4 SAVING WELLS NEAR RIVER ON UNIT   1016 AT TIME STEP      3, STRESS PERIOD      2

 WELLS NEAR RIVER   PERIOD  2   STEP  3
 BOUNDARY      1   LAYER   2   ROW     3   COL     4   RATE     0.00000      WELL_1
 BOUNDARY      2   LAYER   2   ROW     8   COL     4   RATE     0.00000      WELL_2
 BOUNDARY      3   LAYER   2   ROW     4   COL     6   RATE   -10.00000    
 BOUNDARY      4   LAYER   2   ROW     5   COL     8   RATE    -20.0000    
 BOUNDARY      5   LAYER   2   ROW     2   COL     9   RATE    -40.0000    
 UBDSV4 SAVING RIVER            ON UNIT   1016 AT TIME STEP      3, STRESS PERIOD      2

 RIVER              PERIOD  2   STEP  3
 BOUNDARY      1   LAYER   1   ROW     1   COL    15   RATE    -1435.38    
 BOUNDARY      2   LAYER   1   ROW     2   COL    15   RATE    -2531.53      RIV2
 BOUNDARY      3   LAYER   1   ROW     3   COL    15   RATE    -610.127      RIV3
 BOUNDARY      4   LAYER   1   ROW     4   COL    15   RATE    -2096.87    
 BOUNDARY      5   LAYER   1   ROW     5   COL    15   RATE    -1306.10    
 BOUNDARY      6   LAYER   1   ROW     6   COL    15   RATE    -682.156    
 BOUNDARY      7   LAYER   1   ROW     7   COL    15   RATE    -3399.44      RIVX
 BOUNDARY      8   LAYER   1   ROW     8   COL    15   RATE    -3168.00      RIVX
 BOUNDARY      9   LAYER   1   ROW     9   COL    15   RATE    -505.382      RIVX
 BOUNDARY     10   LAYER   1   ROW    10   COL    15   RATE    -1354.87    

 GHB LAKES          PERIOD  2   STEP  3
 BOUNDARY      1   LAYER   1   ROW     3   COL     1   RATE    -14419.8    
 BOUNDARY      2   LAYER   1   ROW     7   COL     1   RATE    -1825.10      GHB2_UPPER
 BOUNDARY      3   LAYER   1   ROW     7   COL     1   RATE    -13203.5      GHB2_LOWER
 UBDSV4 SAVING RECHARGE         ON UNIT   1016 AT TIME STEP      3, STRESS PERIOD      2

 RECHARGE           PERIOD  2   STEP  3
 BOUNDARY      1   LAYER   1   ROW     1   COL     1   RATE     507.292    
 BOUNDARY      2   LAYER   1   ROW     1   COL     2   RATE     507.292    
 BOUNDARY      3   LAYER   1   ROW     1   COL     3   RATE     507.292    
 BOUNDARY      4   LAYER   1   ROW     1   COL     4   RATE     507.292    
 BOUNDARY      5   LAYER   1   ROW     1   COL     5   RATE     507.292    
 BOUNDARY      6   LAYER   1   ROW     1   COL     6   RATE     507.292    
 BOUNDARY      7   LAYER   1   ROW     1   COL     7   RATE     507.292    
 BOUNDARY      8   LAYER   1   ROW     1   COL     8   RATE     507.292    
 BOUNDARY      9   LAYER   1   ROW     1   COL     9   RATE     507.292    
 BOUNDARY     10   LAYER   1   ROW     1   COL    10   RATE     507.292    
 BOUNDARY     11   LAYER   1   ROW     1   COL    11   RATE     507.292    
 BOUNDARY     12   LAYER   1   ROW     1   COL    12   RATE     507.292    
 BOUNDARY     13   LAYER   1   ROW     1   COL    13   RATE     507.292    
 BOUNDARY     14   LAYER   1   ROW     1   COL    14   RATE     507.292    
 BOUNDARY     15   LAYER   1   ROW     1   COL    15   RATE     507.292    
 BOUNDARY     16   LAYER   1   ROW     2   COL     1   RATE     507.292    
 BOUNDARY     17   LAYER   1   ROW     2   COL     2   RATE     507.292    
 BOUNDARY     18   LAYER   1   ROW     2   COL     3   RATE     507.292    
 BOUNDARY     19   LAYER   1   ROW     2   COL     4   RATE     507.292    
 BOUNDARY     20   LAYER   1   ROW     2   COL     5   RATE     507.292    
 BOUNDARY     21   LAYER   1   ROW     2   COL     6   RATE     507.292    
 BOUNDARY     22   LAYER   1   ROW     2   COL     7   RATE     507.292    
 BOUNDARY     23   LAYER   1   ROW     2   COL     8   RATE     507.292    
 BOUNDARY     24   LAYER   1   ROW     2   COL     9   RATE     507.292    
 BOUNDARY     25   LAYER   1   ROW     2   COL    10   RATE     507.292    
 BOUNDARY     26   LAYER   1   ROW     2   COL    11   RATE     507.292    
 BOUNDARY     27   LAYER   1   ROW     2   COL    12   RATE     507.292    
 BOUNDARY     28   LAYER   1   ROW     2   COL    13   RATE     507.292    
 BOUNDARY     29   LAYER   1   ROW     2   COL    14   RATE     507.292    
 BOUNDARY     30   LAYER   1   ROW     2   COL    15   RATE     507.292    
 BOUNDARY     31   LAYER   1   ROW     3   COL     1   RATE     507.292    
 BOUNDARY     32   LAYER   1   ROW     3   COL     2   RATE     507.292    
 BOUNDARY     33   LAYER   1   ROW     3   COL     3   RATE     507.292    
 BOUNDARY     34   LAYER   1   ROW     3   COL     4   RATE     507.292    
 BOUNDARY     35   LAYER   1   ROW     3   COL     5   RATE     507.292    
 BOUNDARY     36   LAYER   1   ROW     3   COL     6   RATE     507.292    
 BOUNDARY     37   LAYER   1   ROW     3   COL     7   RATE     507.292    
 BOUNDARY     38   LAYER   1   ROW     3   COL     8   RATE     507.292    
 BOUNDARY     39   LAYER   1   ROW     3   COL     9   RATE     507.292    
 BOUNDARY     40   LAYER   1   ROW     3   COL    10   RATE     507.292    
 BOUNDARY     41   LAYER   1   ROW     3   COL    11   RATE     507.292    
 BOUNDARY     42   LAYER   1   ROW     3   COL    12   RATE     507.292    
 BOUNDARY     43   LAYER   1   ROW     3   COL    13   RATE     507.292    
 BOUNDARY     44   LAYER   1   ROW     3   COL    14   RATE     507.292    
 BOUNDARY     45   LAYER   1   ROW     3   COL    15   RATE     507.292    
 BOUNDARY     46   LAYER   1   ROW     4   COL     1   RATE     507.292    
 BOUNDARY     47   LAYER   1   ROW     4   COL     2   RATE     507.292    
 BOUNDARY     48   LAYER   1   ROW     4   COL     3   RATE     507.292    
 BOUNDARY     49   LAYER   1   ROW     4   COL     4   RATE     507.292    
 BOUNDARY     50   LAYER   1   ROW     4   COL     5   RATE     507.292    
 BOUNDARY     51   LAYER   1   ROW     4   COL     6   RATE     507.292    
 BOUNDARY     52   LAYER   1   ROW     4   COL     7   RATE     507.292    
 BOUNDARY     53   LAYER   1   ROW     4   COL     8   RATE     507.292    
 BOUNDARY     54   LAYER   1   ROW     4   COL     9   RATE     507.292    
 BOUNDARY     55   LAYER   1   ROW     4   COL    10   RATE     507.292    
 BOUNDARY     56   LAYER   1   ROW     4   COL    11   RATE     507.292    
 BOUNDARY     57   LAYER   1   ROW     4   COL    12   RATE     507.292    
 BOUNDARY     58   LAYER   1   ROW     4   COL    13   RATE     507.292    
 BOUNDARY     59   LAYER   1   ROW     4   COL    14   RATE     507.292    
 BOUNDARY     60   LAYER   1   ROW     4   COL    15   RATE     507.292    
 BOUNDARY     61   LAYER   1   ROW     5   COL     1   RATE     507.292    
 BOUNDARY     62   LAYER   1   ROW     5   COL     2   RATE     507.292    
 BOUNDARY     63   LAYER   1   ROW     5   COL     3   RATE     507.292    
 BOUNDARY     64   LAYER   1   ROW     5   COL     4   RATE     507.292    
 BOUNDARY     65   LAYER   1   ROW     5   COL     5   RATE     507.292    
 BOUNDARY     66   LAYER   1   ROW     5   COL     6   RATE     507.292    
 BOUNDARY     67   LAYER   1   ROW     5   COL     7   RATE     507.292    
 BOUNDARY     68   LAYER   1   ROW     5   COL     8   RATE     507.292    
 BOUNDARY     69   LAYER   1   ROW     5   COL     9   RATE     507.292    
 BOUNDARY     70   LAYER   1   ROW     5   COL    10   RATE     507.292    
 BOUNDARY     71   LAYER   1   ROW     5   COL    11   RATE     507.292    
 BOUNDARY     72   LAYER   1   ROW     5   COL    12   RATE     507.292    
 BOUNDARY     73   LAYER   1   ROW     5   COL    13   RATE     507.292    
 BOUNDARY     74   LAYER   1   ROW     5   COL    14   RATE     507.292    
 BOUNDARY     75   LAYER   1   ROW     5   COL    15   RATE     507.292    
 BOUNDARY     76   LAYER   1   ROW     6   COL     1   RATE     507.292    
 BOUNDARY     77   LAYER   1   ROW     6   COL     2   RATE     507.292    
 BOUNDARY     78   LAYER   1   ROW     6   COL     3   RATE     507.292    
 BOUNDARY     79   LAYER   1   ROW     6   COL     4   RATE     507.292    
 BOUNDARY     80   LAYER   1   ROW     6   COL     5   RATE     507.292    
 BOUNDARY     81   LAYER   1   ROW     6   COL     6   RATE     507.292    
 BOUNDARY     82   LAYER   1   ROW     6   COL     7   RATE     507.292    
 BOUNDARY     83   LAYER   1   ROW     6   COL     8   RATE     507.292    
 BOUNDARY     84   LAYER   1   ROW     6   COL     9   RATE     507.292    
 BOUNDARY     85   LAYER   1   ROW     6   COL    10   RATE     507.292    
 BOUNDARY     86   LAYER   1   ROW     6   COL    11   RATE     507.292    
 BOUNDARY     87   LAYER   1   ROW     6   COL    12   RATE     507.292    
 BOUNDARY     88   LAYER   1   ROW     6   COL    13   RATE     507.292    
 BOUNDARY     89   LAYER   1   ROW     6   COL    14   RATE     507.292    
 BOUNDARY     90   LAYER   1   ROW     6   COL    15   RATE     507.292    
 BOUNDARY     91   LAYER   1   ROW     7   COL     1   RATE     507.292    
 BOUNDARY     92   LAYER   1   ROW     7   COL     2   RATE     507.292    
 BOUNDARY     93   LAYER   1   ROW     7   COL     3   RATE     507.292    
 BOUNDARY     94   LAYER   1   ROW     7   COL     4   RATE     507.292    
 BOUNDARY     95   LAYER   1   ROW     7   COL     5   RATE     507.292    
 BOUNDARY     96   LAYER   1   ROW     7   COL     6   RATE     507.292    
 BOUNDARY     97   LAYER   1   ROW     7   COL     7   RATE     507.292    
 BOUNDARY     98   LAYER   1   ROW     7   COL     8   RATE     507.292    
 BOUNDARY     99   LAYER   1   ROW     7   COL     9   RATE     507.292    
 BOUNDARY    100   LAYER   1   ROW     7   COL    10   RATE     507.292    
 BOUNDARY    101   LAYER   1   ROW     7   COL    11   RATE     507.292    
 BOUNDARY    102   LAYER   1   ROW     7   COL    12   RATE     507.292    
 BOUNDARY    103   LAYER   1   ROW     7   COL    13   RATE     507.292    
 BOUNDARY    104   LAYER   1   ROW     7   COL    14   RATE     507.292    
 BOUNDARY    105   LAYER   1   ROW     7   COL    15   RATE     507.292    
 BOUNDARY    106   LAYER   1   ROW     8   COL     1   RATE     507.292    
 BOUNDARY    107   LAYER   1   ROW     8   COL     2   RATE     507.292    
 BOUNDARY    108   LAYER   1   ROW     8   COL     3   RATE     507.292    
 BOUNDARY    109   LAYER   1   ROW     8   COL     4   RATE     507.292    
 BOUNDARY    110   LAYER   1   ROW     8   COL     5   RATE     507.292    
 BOUNDARY    111   LAYER   1   ROW     8   COL     6   RATE     507.292    
 BOUNDARY    112   LAYER   1   ROW     8   COL     7   RATE     507.292    
 BOUNDARY    113   LAYER   1   ROW     8   COL     8   RATE     507.292    
 BOUNDARY    114   LAYER   1   ROW     8   COL     9   RATE     507.292    
 BOUNDARY    115   LAYER   1   ROW     8   COL    10   RATE     507.292    
 BOUNDARY    116   LAYER   1   ROW     8   COL    11   RATE     507.292    
 BOUNDARY    117   LAYER   1   ROW     8   COL    12   RATE     507.292    
 BOUNDARY    118   LAYER   1   ROW     8   COL    13   RATE     507.292    
 BOUNDARY    119   LAYER   1   ROW     8   COL    14   RATE     507.292    
 BOUNDARY    120   LAYER   1   ROW     8   COL    15   RATE     507.292    
 BOUNDARY    121   LAYER   1   ROW     9   COL     1   RATE     507.292    
 BOUNDARY    122   LAYER   1   ROW     9   COL     2   RATE     507.292    
 BOUNDARY    123   LAYER   1   ROW     9   COL     3   RATE     507.292    
 BOUNDARY    124   LAYER   1   ROW     9   COL     4   RATE     507.292    
 BOUNDARY    125   LAYER   1   ROW     9   COL     5   RATE     507.292    
 BOUNDARY    126   LAYER   1   ROW     9   COL     6   RATE     507.292    
 BOUNDARY    127   LAYER   1   ROW     9   COL     7   RATE     507.292    
 BOUNDARY    128   LAYER   1   ROW     9   COL     8   RATE     507.292    
 BOUNDARY    129   LAYER   1   ROW     9   COL     9   RATE     507.292    
 BOUNDARY    130   LAYER   1   ROW     9   COL    10   RATE     507.292    
 BOUNDARY    131   LAYER   1   ROW     9   COL    11   RATE     507.292    
 BOUNDARY    132   LAYER   1   ROW     9   COL    12   RATE     507.292    
 BOUNDARY    133   LAYER   1   ROW     9   COL    13   RATE     507.292    
 BOUNDARY    134   LAYER   1   ROW     9   COL    14   RATE     507.292    
 BOUNDARY    135   LAYER   1   ROW     9   COL    15   RATE     507.292    
 BOUNDARY    136   LAYER   1   ROW    10   COL     1   RATE     507.292    
 BOUNDARY    137   LAYER   1   ROW    10   COL     2   RATE     507.292    
 BOUNDARY    138   LAYER   1   ROW    10   COL     3   RATE     507.292    
 BOUNDARY    139   LAYER   1   ROW    10   COL     4   RATE     507.292    
 BOUNDARY    140   LAYER   1   ROW    10   COL     5   RATE     507.292    
 BOUNDARY    141   LAYER   1   ROW    10   COL     6   RATE     507.292    
 BOUNDARY    142   LAYER   1   ROW    10   COL     7   RATE     507.292    
 BOUNDARY    143   LAYER   1   ROW    10   COL     8   RATE     507.292    
 BOUNDARY    144   LAYER   1   ROW    10   COL     9   RATE     507.292    
 BOUNDARY    145   LAYER   1   ROW    10   COL    10   RATE     507.292    
 BOUNDARY    146   LAYER   1   ROW    10   COL    11   RATE     507.292    
 BOUNDARY    147   LAYER   1   ROW    10   COL    12   RATE     507.292    
 BOUNDARY    148   LAYER   1   ROW    10   COL    13   RATE     507.292    
 BOUNDARY    149   LAYER   1   ROW    10   COL    14   RATE     507.292    
 BOUNDARY    150   LAYER   1   ROW    10   COL    15   RATE     507.292    
 UBDSV4 SAVING ET SEGS          ON UNIT   1016 AT TIME STEP      3, STRESS PERIOD      2

 ET SEGS            PERIOD  2   STEP  3
 BOUNDARY      1   LAYER   1   ROW     1   COL     1   RATE    -1.56450    
 BOUNDARY      2   LAYER   1   ROW     1   COL     2   RATE    -6.75426    
 BOUNDARY      3   LAYER   1   ROW     1   COL     3   RATE    -36.1288    
 BOUNDARY      4   LAYER   1   ROW     1   COL     4   RATE    -75.7292    
 BOUNDARY      5   LAYER   1   ROW     1   COL     5   RATE    -75.7292    
 BOUNDARY      6   LAYER   1   ROW     1   COL     6   RATE    -75.7292    
 BOUNDARY      7   LAYER   1   ROW     1   COL     7   RATE    -75.7292    
 BOUNDARY      8   LAYER   1   ROW     1   COL     8   RATE    -75.7292    
 BOUNDARY      9   LAYER   1   ROW     1   COL     9   RATE    -75.7292    
 BOUNDARY     10   LAYER   1   ROW     1   COL    10   RATE    -75.7292    
 BOUNDARY     11   LAYER   1   ROW     1   COL    11   RATE    -75.7292    
 BOUNDARY     12   LAYER   1   ROW     1   COL    12   RATE    -12.4970    
 BOUNDARY     13   LAYER   1   ROW     1   COL    13   RATE     0.00000    
 BOUNDARY     14   LAYER   1   ROW     1   COL    14   RATE     0.00000    
 BOUNDARY     15   LAYER   1   ROW     1   COL    15   RATE     0.00000    
 BOUNDARY     16   LAYER   1   ROW     2   COL     1   RATE     0.00000    
 BOUNDARY     17   LAYER   1   ROW     2   COL     2   RATE    -3.33477    
 BOUNDARY     18   LAYER   1   ROW     2   COL     3   RATE    -21.2028    
 BOUNDARY     19   LAYER   1   ROW     2   COL     4   RATE    -75.7292    
 BOUNDARY     20   LAYER   1   ROW     2   COL     5   RATE    -75.7292    
 BOUNDARY     21   LAYER   1   ROW     2   COL     6   RATE    -75.7292    
 BOUNDARY     22   LAYER   1   ROW     2   COL     7   RATE    -75.7292    
 BOUNDARY     23   LAYER   1   ROW     2   COL     8   RATE    -75.7292    
 BOUNDARY     24   LAYER   1   ROW     2   COL     9   RATE    -75.7292    
 BOUNDARY     25   LAYER   1   ROW     2   COL    10   RATE    -75.7292    
 BOUNDARY     26   LAYER   1   ROW     2   COL    11   RATE    -75.7292    
 BOUNDARY     27   LAYER   1   ROW     2   COL    12   RATE    -13.8147    
 BOUNDARY     28   LAYER   1   ROW     2   COL    13   RATE     0.00000    
 BOUNDARY     29   LAYER   1   ROW     2   COL    14   RATE     0.00000    
 BOUNDARY     30   LAYER   1   ROW     2   COL    15   RATE     0.00000    
 BOUNDARY     31   LAYER   1   ROW     3   COL     1   RATE     0.00000    
 BOUNDARY     32   LAYER   1   ROW     3   COL     2   RATE     0.00000    
 BOUNDARY     33   LAYER   1   ROW     3   COL     3   RATE    -16.6667    
 BOUNDARY     34   LAYER   1   ROW     3   COL     4   RATE    -75.7292    
 BOUNDARY     35   LAYER   1   ROW     3   COL     5   RATE    -75.7292    
 BOUNDARY     36   LAYER   1   ROW     3   COL     6   RATE    -75.7292    
 BOUNDARY     37   LAYER   1   ROW     3   COL     7   RATE    -75.7292    
 BOUNDARY     38   LAYER   1   ROW     3   COL     8   RATE    -75.7292    
 BOUNDARY     39   LAYER   1   ROW     3   COL     9   RATE    -75.7292    
 BOUNDARY     40   LAYER   1   ROW     3   COL    10   RATE    -75.7292    
 BOUNDARY     41   LAYER   1   ROW     3   COL    11   RATE    -75.7292    
 BOUNDARY     42   LAYER   1   ROW     3   COL    12   RATE    -16.0373    
 BOUNDARY     43   LAYER   1   ROW     3   COL    13   RATE    -1.35183    
 BOUNDARY     44   LAYER   1   ROW     3   COL    14   RATE     0.00000    
 BOUNDARY     45   LAYER   1   ROW     3   COL    15   RATE     0.00000    
 BOUNDARY     46   LAYER   1   ROW     4   COL     1   RATE     0.00000    
 BOUNDARY     47   LAYER   1   ROW     4   COL     2   RATE    -2.18822    
 BOUNDARY     48   LAYER   1   ROW     4   COL     3   RATE    -19.5941    
 BOUNDARY     49   LAYER   1   ROW     4   COL     4   RATE    -75.7292    
 BOUNDARY     50   LAYER   1   ROW     4   COL     5   RATE    -75.7292    
 BOUNDARY     51   LAYER   1   ROW     4   COL     6   RATE    -75.7292    
 BOUNDARY     52   LAYER   1   ROW     4   COL     7   RATE    -75.7292    
 BOUNDARY     53   LAYER   1   ROW     4   COL     8   RATE    -75.7292    
 BOUNDARY     54   LAYER   1   ROW     4   COL     9   RATE    -75.7292    
 BOUNDARY     55   LAYER   1   ROW     4   COL    10   RATE    -75.7292    
 BOUNDARY     56   LAYER   1   ROW     4   COL    11   RATE    -75.7292    
 BOUNDARY     57   LAYER   1   ROW     4   COL    12   RATE    -18.1590    
 BOUNDARY     58   LAYER   1   ROW     4   COL    13   RATE    -2.46234    
 BOUNDARY     59   LAYER   1   ROW     4   COL    14   RATE     0.00000    
 BOUNDARY     60   LAYER   1   ROW     4   COL    15   RATE     0.00000    
 BOUNDARY     61   LAYER   1   ROW     5   COL     1   RATE     0.00000    
 BOUNDARY     62   LAYER   1   ROW     5   COL     2   RATE    -4.43998    
 BOUNDARY     63   LAYER   1   ROW     5   COL     3   RATE    -22.6144    
 BOUNDARY     64   LAYER   1   ROW     5   COL     4   RATE    -75.7292    
 BOUNDARY     65   LAYER   1   ROW     5   COL     5   RATE    -75.7292    
 BOUNDARY     66   LAYER   1   ROW     5   COL     6   RATE    -75.7292    
 BOUNDARY     67   LAYER   1   ROW     5   COL     7   RATE    -75.7292    
 BOUNDARY     68   LAYER   1   ROW     5   COL     8   RATE    -75.7292    
 BOUNDARY     69   LAYER   1   ROW     5   COL     9   RATE    -75.7292    
 BOUNDARY     70   LAYER   1   ROW     5   COL    10   RATE    -75.7292    
 BOUNDARY     71   LAYER   1   ROW     5   COL    11   RATE    -75.7292    
 BOUNDARY     72   LAYER   1   ROW     5   COL    12   RATE    -19.6303    
 BOUNDARY     73   LAYER   1   ROW     5   COL    13   RATE    -3.15940    
 BOUNDARY     74   LAYER   1   ROW     5   COL    14   RATE     0.00000    
 BOUNDARY     75   LAYER   1   ROW     5   COL    15   RATE     0.00000    
 BOUNDARY     76   LAYER   1   ROW     6   COL     1   RATE     0.00000    
 BOUNDARY     77   LAYER   1   ROW     6   COL     2   RATE    -3.35853    
 BOUNDARY     78   LAYER   1   ROW     6   COL     3   RATE    -25.1047    
 BOUNDARY     79   LAYER   1   ROW     6   COL     4   RATE    -75.7292    
 BOUNDARY     80   LAYER   1   ROW     6   COL     5   RATE    -75.7292    
 BOUNDARY     81   LAYER   1   ROW     6   COL     6   RATE    -75.7292    
 BOUNDARY     82   LAYER   1   ROW     6   COL     7   RATE    -75.7292    
 BOUNDARY     83   LAYER   1   ROW     6   COL     8   RATE    -75.7292    
 BOUNDARY     84   LAYER   1   ROW     6   COL     9   RATE    -75.7292    
 BOUNDARY     85   LAYER   1   ROW     6   COL    10   RATE    -75.7292    
 BOUNDARY     86   LAYER   1   ROW     6   COL    11   RATE    -75.7292    
 BOUNDARY     87   LAYER   1   ROW     6   COL    12   RATE    -20.1220    
 BOUNDARY     88   LAYER   1   ROW     6   COL    13   RATE    -3.12902    
 BOUNDARY     89   LAYER   1   ROW     6   COL    14   RATE     0.00000    
 BOUNDARY     90   LAYER   1   ROW     6   COL    15   RATE     0.00000    
 BOUNDARY     91   LAYER   1   ROW     7   COL     1   RATE     0.00000    
 BOUNDARY     92   LAYER   1   ROW     7   COL     2   RATE   -0.714212    
 BOUNDARY     93   LAYER   1   ROW     7   COL     3   RATE    -30.3261    
 BOUNDARY     94   LAYER   1   ROW     7   COL     4   RATE    -75.7292    
 BOUNDARY     95   LAYER   1   ROW     7   COL     5   RATE    -75.7292    
 BOUNDARY     96   LAYER   1   ROW     7   COL     6   RATE    -75.7292    
 BOUNDARY     97   LAYER   1   ROW     7   COL     7   RATE    -75.7292    
 BOUNDARY     98   LAYER   1   ROW     7   COL     8   RATE    -75.7292    
 BOUNDARY     99   LAYER   1   ROW     7   COL     9   RATE    -75.7292    
 BOUNDARY    100   LAYER   1   ROW     7   COL    10   RATE    -75.7292    
 BOUNDARY    101   LAYER   1   ROW     7   COL    11   RATE    -75.7292    
 BOUNDARY    102   LAYER   1   ROW     7   COL    12   RATE    -19.9966    
 BOUNDARY    103   LAYER   1   ROW     7   COL    13   RATE    -2.56939    
 BOUNDARY    104   LAYER   1   ROW     7   COL    14   RATE     0.00000    
 BOUNDARY    105   LAYER   1   ROW     7   COL    15   RATE     0.00000    
 BOUNDARY    106   LAYER   1   ROW     8   COL     1   RATE     0.00000    
 BOUNDARY    107   LAYER   1   ROW     8   COL     2   RATE    -8.32825    
 BOUNDARY    108   LAYER   1   ROW     8   COL     3   RATE    -75.7292    
 BOUNDARY    109   LAYER   1   ROW     8   COL     4   RATE    -75.7292    
 BOUNDARY    110   LAYER   1   ROW     8   COL     5   RATE    -75.7292    
 BOUNDARY    111   LAYER   1   ROW     8   COL     6   RATE    -75.7292    
 BOUNDARY    112   LAYER   1   ROW     8   COL     7   RATE    -75.7292    
 BOUNDARY    113   LAYER   1   ROW     8   COL     8   RATE    -75.7292    
 BOUNDARY    114   LAYER   1   ROW     8   COL     9   RATE    -75.7292    
 BOUNDARY    115   LAYER   1   ROW     8   COL    10   RATE    -75.7292    
 BOUNDARY    116   LAYER   1   ROW     8   COL    11   RATE    -75.7292    
 BOUNDARY    117   LAYER   1   ROW     8   COL    12   RATE    -20.2883    
 BOUNDARY    118   LAYER   1   ROW     8   COL    13   RATE    -2.56845    
 BOUNDARY    119   LAYER   1   ROW     8   COL    14   RATE     0.00000    
 BOUNDARY    120   LAYER   1   ROW     8   COL    15   RATE     0.00000    
 BOUNDARY    121   LAYER   1   ROW     9   COL     1   RATE    -14.0681    
 BOUNDARY    122   LAYER   1   ROW     9   COL     2   RATE    -44.7921    
 BOUNDARY    123   LAYER   1   ROW     9   COL     3   RATE    -75.7292    
 BOUNDARY    124   LAYER   1   ROW     9   COL     4   RATE    -75.7292    
 BOUNDARY    125   LAYER   1   ROW     9   COL     5   RATE    -75.7292    
 BOUNDARY    126   LAYER   1   ROW     9   COL     6   RATE    -75.7292    
 BOUNDARY    127   LAYER   1   ROW     9   COL     7   RATE    -75.7292    
 BOUNDARY    128   LAYER   1   ROW     9   COL     8   RATE    -75.7292    
 BOUNDARY    129   LAYER   1   ROW     9   COL     9   RATE    -75.7292    
 BOUNDARY    130   LAYER   1   ROW     9   COL    10   RATE    -75.7292    
 BOUNDARY    131   LAYER   1   ROW     9   COL    11   RATE    -75.7292    
 BOUNDARY    132   LAYER   1   ROW     9   COL    12   RATE    -21.1167    
 BOUNDARY    133   LAYER   1   ROW     9   COL    13   RATE    -3.18253    
 BOUNDARY    134   LAYER   1   ROW     9   COL    14   RATE     0.00000    
 BOUNDARY    135   LAYER   1   ROW     9   COL    15   RATE     0.00000    
 BOUNDARY    136   LAYER   1   ROW    10   COL     1   RATE    -51.0182    
 BOUNDARY    137   LAYER   1   ROW    10   COL     2   RATE    -75.7292    
 BOUNDARY    138   LAYER   1   ROW    10   COL     3   RATE    -75.7292    
 BOUNDARY    139   LAYER   1   ROW    10   COL     4   RATE    -75.7292    
 BOUNDARY    140   LAYER   1   ROW    10   COL     5   RATE    -75.7292    
 BOUNDARY    141   LAYER   1   ROW    10   COL     6   RATE    -75.7292    
 BOUNDARY    142   LAYER   1   ROW    10   COL     7   RATE    -75.7292    
 BOUNDARY    143   LAYER   1   ROW    10   COL     8   RATE    -75.7292    
 BOUNDARY    144   LAYER   1   ROW    10   COL     9   RATE    -75.7292    
 BOUNDARY    145   LAYER   1   ROW    10   COL    10   RATE    -75.7292    
 BOUNDARY    146   LAYER   1   ROW    10   COL    11   RATE    -75.7292    
 BOUNDARY    147   LAYER   1   ROW    10   COL    12   RATE    -21.7179    
 BOUNDARY    148   LAYER   1   ROW    10   COL    13   RATE    -3.57991    
 BOUNDARY    149   LAYER   1   ROW    10   COL    14   RATE     0.00000    
 BOUNDARY    150   LAYER   1   ROW    10   COL    15   RATE     0.00000    

 HEAD WILL BE SAVED ON UNIT 1017 AT END OF TIME STEP    3, STRESS PERIOD    2

 IBOUND WILL BE SAVED ON UNIT 1018 AT END OF TIME STEP    3, STRESS PERIOD    2
WEL   no.    1 value from time series:   0.0000     for time:  4.000     to  5.000    
WEL   no.    2 value from time series:   0.0000     for time:  4.000     to  5.000    
RIV   no.    1 value from time series:   103.75     for time:  4.000     to  5.000    
RIV   no.    2 value from time series:   103.75     for time:  4.000     to  5.000    
RIV   no.    3 value from time series:   113.03     for time:  4.000     to  5.000    
RIV   no.    4 value from time series:   113.03     for time:  4.000     to  5.000    
RIV   no.    5 value from time series:   115.85     for time:  4.000     to  5.000    
RIV   no.    6 value from time series:   115.85     for time:  4.000     to  5.000    
RIV   no.    7 value from time series:   106.03     for time:  4.000     to  5.000    
RIV   no.    8 value from time series:   106.03     for time:  4.000     to  5.000    
RIV   no.    9 value from time series:   115.00     for time:  4.000     to  5.000    
RIV   no.   10 value from time series:   115.00     for time:  4.000     to  5.000    
WEL   no.    1 value from time series:   0.0000     for time:  4.000     to  5.000    
WEL   no.    2 value from time series:   0.0000     for time:  4.000     to  5.000    
RIV   no.    1 value from time series:   103.75     for time:  4.000     to  5.000    
RIV   no.    2 value from time series:   103.75     for time:  4.000     to  5.000    
RIV   no.    3 value from time series:   113.03     for time:  4.000     to  5.000    
RIV   no.    4 value from time series:   113.03     for time:  4.000     to  5.000    
RIV   no.    5 value from time series:   115.85     for time:  4.000     to  5.000    
RIV   no.    6 value from time series:   115.85     for time:  4.000     to  5.000    
RIV   no.    7 value from time series:   106.03     for time:  4.000     to  5.000    
RIV   no.    8 value from time series:   106.03     for time:  4.000     to  5.000    
RIV   no.    9 value from time series:   115.00     for time:  4.000     to  5.000    
RIV   no.   10 value from time series:   115.00     for time:  4.000     to  5.000    

 OUTPUT CONTROL FOR STRESS PERIOD    2   TIME STEP    4
    SAVE BUDGET
    SAVE HEAD
    SAVE HEAD FOR ALL LAYERS
    SAVE IBOUND
    SAVE IBOUND FOR ALL LAYERS
 UBDSV1 SAVING          STORAGE ON UNIT   1016 AT TIME STEP      4, STRESS PERIOD      2
 UBDSV1 SAVING FLOW RIGHT FACE  ON UNIT   1016 AT TIME STEP      4, STRESS PERIOD      2
 UBDSV1 SAVING FLOW FRONT FACE  ON UNIT   1016 AT TIME STEP      4, STRESS PERIOD      2
 UBDSV1 SAVING FLOW LOWER FACE  ON UNIT   1016 AT TIME STEP      4, STRESS PERIOD      2
 UBDSV4 SAVING WELLS NEAR RIVER ON UNIT   1016 AT TIME STEP      4, STRESS PERIOD      2

 WELLS NEAR RIVER   PERIOD  2   STEP  4
 BOUNDARY      1   LAYER   2   ROW     3   COL     4   RATE     0.00000      WELL_1
 BOUNDARY      2   LAYER   2   ROW     8   COL     4   RATE     0.00000      WELL_2
 BOUNDARY      3   LAYER   2   ROW     4   COL     6   RATE   -10.00000    
 BOUNDARY      4   LAYER   2   ROW     5   COL     8   RATE    -20.0000    
 BOUNDARY      5   LAYER   2   ROW     2   COL     9   RATE    -40.0000    
 UBDSV4 SAVING RIVER            ON UNIT   1016 AT TIME STEP      4, STRESS PERIOD      2

 RIVER              PERIOD  2   STEP  4
 BOUNDARY      1   LAYER   1   ROW     1   COL    15   RATE    -2279.44    
 BOUNDARY      2   LAYER   1   ROW     2   COL    15   RATE    -3375.11      RIV2
 BOUNDARY      3   LAYER   1   ROW     3   COL    15   RATE    -549.084      RIV3
 BOUNDARY      4   LAYER   1   ROW     4   COL    15   RATE    -2033.92    
 BOUNDARY      5   LAYER   1   ROW     5   COL    15   RATE    -1673.43    
 BOUNDARY      6   LAYER   1   ROW     6   COL    15   RATE    -1050.59    
 BOUNDARY      7   LAYER   1   ROW     7   COL    15   RATE    -4295.50      RIVX
 BOUNDARY      8   LAYER   1   ROW     8   COL    15   RATE    -4065.70      RIVX
 BOUNDARY      9   LAYER   1   ROW     9   COL    15   RATE    -376.766      RIVX
 BOUNDARY     10   LAYER   1   ROW    10   COL    15   RATE    -1225.51    

 GHB LAKES          PERIOD  2   STEP  4
 BOUNDARY      1   LAYER   1   ROW     3   COL     1   RATE    -14419.4    
 BOUNDARY      2   LAYER   1   ROW     7   COL     1   RATE    -1823.39      GHB2_UPPER
 BOUNDARY      3   LAYER   1   ROW     7   COL     1   RATE    -13202.9      GHB2_LOWER
 UBDSV4 SAVING RECHARGE         ON UNIT   1016 AT TIME STEP      4, STRESS PERIOD      2

 RECHARGE           PERIOD  2   STEP  4
 BOUNDARY      1   LAYER   1   ROW     1   COL     1   RATE     509.375    
 BOUNDARY      2   LAYER   1   ROW     1   COL     2   RATE     509.375    
 BOUNDARY      3   LAYER   1   ROW     1   COL     3   RATE     509.375    
 BOUNDARY      4   LAYER   1   ROW     1   COL     4   RATE     509.375    
 BOUNDARY      5   LAYER   1   ROW     1   COL     5   RATE     509.375    
 BOUNDARY      6   LAYER   1   ROW     1   COL     6   RATE     509.375    
 BOUNDARY      7   LAYER   1   ROW     1   COL     7   RATE     509.375    
 BOUNDARY      8   LAYER   1   ROW     1   COL     8   RATE     509.375    
 BOUNDARY      9   LAYER   1   ROW     1   COL     9   RATE     509.375    
 BOUNDARY     10   LAYER   1   ROW     1   COL    10   RATE     509.375    
 BOUNDARY     11   LAYER   1   ROW     1   COL    11   RATE     509.375    
 BOUNDARY     12   LAYER   1   ROW     1   COL    12   RATE     509.375    
 BOUNDARY     13   LAYER   1   ROW     1   COL    13   RATE     509.375    
 BOUNDARY     14   LAYER   1   ROW     1   COL    14   RATE     509.375    
 BOUNDARY     15   LAYER   1   ROW     1   COL    15   RATE     509.375    
 BOUNDARY     16   LAYER   1   ROW     2   COL     1   RATE     509.375    
 BOUNDARY     17   LAYER   1   ROW     2   COL     2   RATE     509.375    
 BOUNDARY     18   LAYER   1   ROW     2   COL     3   RATE     509.375    
 BOUNDARY     19   LAYER   1   ROW     2   COL     4   RATE     509.375    
 BOUNDARY     20   LAYER   1   ROW     2   COL     5   RATE     509.375    
 BOUNDARY     21   LAYER   1   ROW     2   COL     6   RATE     509.375    
 BOUNDARY     22   LAYER   1   ROW     2   COL     7   RATE     509.375    
 BOUNDARY     23   LAYER   1   ROW     2   COL     8   RATE     509.375    
 BOUNDARY     24   LAYER   1   ROW     2   COL     9   RATE     509.375    
 BOUNDARY     25   LAYER   1   ROW     2   COL    10   RATE     509.375    
 BOUNDARY     26   LAYER   1   ROW     2   COL    11   RATE     509.375    
 BOUNDARY     27   LAYER   1   ROW     2   COL    12   RATE     509.375    
 BOUNDARY     28   LAYER   1   ROW     2   COL    13   RATE     509.375    
 BOUNDARY     29   LAYER   1   ROW     2   COL    14   RATE     509.375    
 BOUNDARY     30   LAYER   1   ROW     2   COL    15   RATE     509.375    
 BOUNDARY     31   LAYER   1   ROW     3   COL     1   RATE     509.375    
 BOUNDARY     32   LAYER   1   ROW     3   COL     2   RATE     509.375    
 BOUNDARY     33   LAYER   1   ROW     3   COL     3   RATE     509.375    
 BOUNDARY     34   LAYER   1   ROW     3   COL     4   RATE     509.375    
 BOUNDARY     35   LAYER   1   ROW     3   COL     5   RATE     509.375    
 BOUNDARY     36   LAYER   1   ROW     3   COL     6   RATE     509.375    
 BOUNDARY     37   LAYER   1   ROW     3   COL     7   RATE     509.375    
 BOUNDARY     38   LAYER   1   ROW     3   COL     8   RATE     509.375    
 BOUNDARY     39   LAYER   1   ROW     3   COL     9   RATE     509.375    
 BOUNDARY     40   LAYER   1   ROW     3   COL    10   RATE     509.375    
 BOUNDARY     41   LAYER   1   ROW     3   COL    11   RATE     509.375    
 BOUNDARY     42   LAYER   1   ROW     3   COL    12   RATE     509.375    
 BOUNDARY     43   LAYER   1   ROW     3   COL    13   RATE     509.375    
 BOUNDARY     44   LAYER   1   ROW     3   COL    14   RATE     509.375    
 BOUNDARY     45   LAYER   1   ROW     3   COL    15   RATE     509.375    
 BOUNDARY     46   LAYER   1   ROW     4   COL     1   RATE     509.375    
 BOUNDARY     47   LAYER   1   ROW     4   COL     2   RATE     509.375    
 BOUNDARY     48   LAYER   1   ROW     4   COL     3   RATE     509.375    
 BOUNDARY     49   LAYER   1   ROW     4   COL     4   RATE     509.375    
 BOUNDARY     50   LAYER   1   ROW     4   COL     5   RATE     509.375    
 BOUNDARY     51   LAYER   1   ROW     4   COL     6   RATE     509.375    
 BOUNDARY     52   LAYER   1   ROW     4   COL     7   RATE     509.375    
 BOUNDARY     53   LAYER   1   ROW     4   COL     8   RATE     509.375    
 BOUNDARY     54   LAYER   1   ROW     4   COL     9   RATE     509.375    
 BOUNDARY     55   LAYER   1   ROW     4   COL    10   RATE     509.375    
 BOUNDARY     56   LAYER   1   ROW     4   COL    11   RATE     509.375    
 BOUNDARY     57   LAYER   1   ROW     4   COL    12   RATE     509.375    
 BOUNDARY     58   LAYER   1   ROW     4   COL    13   RATE     509.375    
 BOUNDARY     59   LAYER   1   ROW     4   COL    14   RATE     509.375    
 BOUNDARY     60   LAYER   1   ROW     4   COL    15   RATE     509.375    
 BOUNDARY     61   LAYER   1   ROW     5   COL     1   RATE     509.375    
 BOUNDARY     62   LAYER   1   ROW     5   COL     2   RATE     509.375    
 BOUNDARY     63   LAYER   1   ROW     5   COL     3   RATE     509.375    
 BOUNDARY     64   LAYER   1   ROW     5   COL     4   RATE     509.375    
 BOUNDARY     65   LAYER   1   ROW     5   COL     5   RATE     509.375    
 BOUNDARY     66   LAYER   1   ROW     5   COL     6   RATE     509.375    
 BOUNDARY     67   LAYER   1   ROW     5   COL     7   RATE     509.375    
 BOUNDARY     68   LAYER   1   ROW     5   COL     8   RATE     509.375    
 BOUNDARY     69   LAYER   1   ROW     5   COL     9   RATE     509.375    
 BOUNDARY     70   LAYER   1   ROW     5   COL    10   RATE     509.375    
 BOUNDARY     71   LAYER   1   ROW     5   COL    11   RATE     509.375    
 BOUNDARY     72   LAYER   1   ROW     5   COL    12   RATE     509.375    
 BOUNDARY     73   LAYER   1   ROW     5   COL    13   RATE     509.375    
 BOUNDARY     74   LAYER   1   ROW     5   COL    14   RATE     509.375    
 BOUNDARY     75   LAYER   1   ROW     5   COL    15   RATE     509.375    
 BOUNDARY     76   LAYER   1   ROW     6   COL     1   RATE     509.375    
 BOUNDARY     77   LAYER   1   ROW     6   COL     2   RATE     509.375    
 BOUNDARY     78   LAYER   1   ROW     6   COL     3   RATE     509.375    
 BOUNDARY     79   LAYER   1   ROW     6   COL     4   RATE     509.375    
 BOUNDARY     80   LAYER   1   ROW     6   COL     5   RATE     509.375    
 BOUNDARY     81   LAYER   1   ROW     6   COL     6   RATE     509.375    
 BOUNDARY     82   LAYER   1   ROW     6   COL     7   RATE     509.375    
 BOUNDARY     83   LAYER   1   ROW     6   COL     8   RATE     509.375    
 BOUNDARY     84   LAYER   1   ROW     6   COL     9   RATE     509.375    
 BOUNDARY     85   LAYER   1   ROW     6   COL    10   RATE     509.375    
 BOUNDARY     86   LAYER   1   ROW     6   COL    11   RATE     509.375    
 BOUNDARY     87   LAYER   1   ROW     6   COL    12   RATE     509.375    
 BOUNDARY     88   LAYER   1   ROW     6   COL    13   RATE     509.375    
 BOUNDARY     89   LAYER   1   ROW     6   COL    14   RATE     509.375    
 BOUNDARY     90   LAYER   1   ROW     6   COL    15   RATE     509.375    
 BOUNDARY     91   LAYER   1   ROW     7   COL     1   RATE     509.375    
 BOUNDARY     92   LAYER   1   ROW     7   COL     2   RATE     509.375    
 BOUNDARY     93   LAYER   1   ROW     7   COL     3   RATE     509.375    
 BOUNDARY     94   LAYER   1   ROW     7   COL     4   RATE     509.375    
 BOUNDARY     95   LAYER   1   ROW     7   COL     5   RATE     509.375    
 BOUNDARY     96   LAYER   1   ROW     7   COL     6   RATE     509.375    
 BOUNDARY     97   LAYER   1   ROW     7   COL     7   RATE     509.375    
 BOUNDARY     98   LAYER   1   ROW     7   COL     8   RATE     509.375    
 BOUNDARY     99   LAYER   1   ROW     7   COL     9   RATE     509.375    
 BOUNDARY    100   LAYER   1   ROW     7   COL    10   RATE     509.375    
 BOUNDARY    101   LAYER   1   ROW     7   COL    11   RATE     509.375    
 BOUNDARY    102   LAYER   1   ROW     7   COL    12   RATE     509.375    
 BOUNDARY    103   LAYER   1   ROW     7   COL    13   RATE     509.375    
 BOUNDARY    104   LAYER   1   ROW     7   COL    14   RATE     509.375    
 BOUNDARY    105   LAYER   1   ROW     7   COL    15   RATE     509.375    
 BOUNDARY    106   LAYER   1   ROW     8   COL     1   RATE     509.375    
 BOUNDARY    107   LAYER   1   ROW     8   COL     2   RATE     509.375    
 BOUNDARY    108   LAYER   1   ROW     8   COL     3   RATE     509.375    
 BOUNDARY    109   LAYER   1   ROW     8   COL     4   RATE     509.375    
 BOUNDARY    110   LAYER   1   ROW     8   COL     5   RATE     509.375    
 BOUNDARY    111   LAYER   1   ROW     8   COL     6   RATE     509.375    
 BOUNDARY    112   LAYER   1   ROW     8   COL     7   RATE     509.375    
 BOUNDARY    113   LAYER   1   ROW     8   COL     8   RATE     509.375    
 BOUNDARY    114   LAYER   1   ROW     8   COL     9   RATE     509.375    
 BOUNDARY    115   LAYER   1   ROW     8   COL    10   RATE     509.375    
 BOUNDARY    116   LAYER   1   ROW     8   COL    11   RATE     509.375    
 BOUNDARY    117   LAYER   1   ROW     8   COL    12   RATE     509.375    
 BOUNDARY    118   LAYER   1   ROW     8   COL    13   RATE     509.375    
 BOUNDARY    119   LAYER   1   ROW     8   COL    14   RATE     509.375    
 BOUNDARY    120   LAYER   1   ROW     8   COL    15   RATE     509.375    
 BOUNDARY    121   LAYER   1   ROW     9   COL     1   RATE     509.375    
 BOUNDARY    122   LAYER   1   ROW     9   COL     2   RATE     509.375    
 BOUNDARY    123   LAYER   1   ROW     9   COL     3   RATE     509.375    
 BOUNDARY    124   LAYER   1   ROW     9   COL     4   RATE     509.375    
 BOUNDARY    125   LAYER   1   ROW     9   COL     5   RATE     509.375    
 BOUNDARY    126   LAYER   1   ROW     9   COL     6   RATE     509.375    
 BOUNDARY    127   LAYER   1   ROW     9   COL     7   RATE     509.375    
 BOUNDARY    128   LAYER   1   ROW     9   COL     8   RATE     509.375    
 BOUNDARY    129   LAYER   1   ROW     9   COL     9   RATE     509.375    
 BOUNDARY    130   LAYER   1   ROW     9   COL    10   RATE     509.375    
 BOUNDARY    131   LAYER   1   ROW     9   COL    11   RATE     509.375    
 BOUNDARY    132   LAYER   1   ROW     9   COL    12   RATE     509.375    
 BOUNDARY    133   LAYER   1   ROW     9   COL    13   RATE     509.375    
 BOUNDARY    134   LAYER   1   ROW     9   COL    14   RATE     509.375    
 BOUNDARY    135   LAYER   1   ROW     9   COL    15   RATE     509.375    
 BOUNDARY    136   LAYER   1   ROW    10   COL     1   RATE     509.375    
 BOUNDARY    137   LAYER   1   ROW    10   COL     2   RATE     509.375    
 BOUNDARY    138   LAYER   1   ROW    10   COL     3   RATE     509.375    
 BOUNDARY    139   LAYER   1   ROW    10   COL     4   RATE     509.375    
 BOUNDARY    140   LAYER   1   ROW    10   COL     5   RATE     509.375    
 BOUNDARY    141   LAYER   1   ROW    10   COL     6   RATE     509.375    
 BOUNDARY    142   LAYER   1   ROW    10   COL     7   RATE     509.375    
 BOUNDARY    143   LAYER   1   ROW    10   COL     8   RATE     509.375    
 BOUNDARY    144   LAYER   1   ROW    10   COL     9   RATE     509.375    
 BOUNDARY    145   LAYER   1   ROW    10   COL    10   RATE     509.375    
 BOUNDARY    146   LAYER   1   ROW    10   COL    11   RATE     509.375    
 BOUNDARY    147   LAYER   1   ROW    10   COL    12   RATE     509.375    
 BOUNDARY    148   LAYER   1   ROW    10   COL    13   RATE     509.375    
 BOUNDARY    149   LAYER   1   ROW    10   COL    14   RATE     509.375    
 BOUNDARY    150   LAYER   1   ROW    10   COL    15   RATE     509.375    
 UBDSV4 SAVING ET SEGS          ON UNIT   1016 AT TIME STEP      4, STRESS PERIOD      2

 ET SEGS            PERIOD  2   STEP  4
 BOUNDARY      1   LAYER   1   ROW     1   COL     1   RATE    -1.56934    
 BOUNDARY      2   LAYER   1   ROW     1   COL     2   RATE    -6.77350    
 BOUNDARY      3   LAYER   1   ROW     1   COL     3   RATE    -36.2491    
 BOUNDARY      4   LAYER   1   ROW     1   COL     4   RATE    -75.9375    
 BOUNDARY      5   LAYER   1   ROW     1   COL     5   RATE    -75.9375    
 BOUNDARY      6   LAYER   1   ROW     1   COL     6   RATE    -75.9375    
 BOUNDARY      7   LAYER   1   ROW     1   COL     7   RATE    -75.9375    
 BOUNDARY      8   LAYER   1   ROW     1   COL     8   RATE    -75.9375    
 BOUNDARY      9   LAYER   1   ROW     1   COL     9   RATE    -75.9375    
 BOUNDARY     10   LAYER   1   ROW     1   COL    10   RATE    -75.9375    
 BOUNDARY     11   LAYER   1   ROW     1   COL    11   RATE    -75.9375    
 BOUNDARY     12   LAYER   1   ROW     1   COL    12   RATE    -12.5340    
 BOUNDARY     13   LAYER   1   ROW     1   COL    13   RATE     0.00000    
 BOUNDARY     14   LAYER   1   ROW     1   COL    14   RATE     0.00000    
 BOUNDARY     15   LAYER   1   ROW     1   COL    15   RATE     0.00000    
 BOUNDARY     16   LAYER   1   ROW     2   COL     1   RATE     0.00000    
 BOUNDARY     17   LAYER   1   ROW     2   COL     2   RATE    -3.34452    
 BOUNDARY     18   LAYER   1   ROW     2   COL     3   RATE    -21.2643    
 BOUNDARY     19   LAYER   1   ROW     2   COL     4   RATE    -75.9375    
 BOUNDARY     20   LAYER   1   ROW     2   COL     5   RATE    -75.9375    
 BOUNDARY     21   LAYER   1   ROW     2   COL     6   RATE    -75.9375    
 BOUNDARY     22   LAYER   1   ROW     2   COL     7   RATE    -75.9375    
 BOUNDARY     23   LAYER   1   ROW     2   COL     8   RATE    -75.9375    
 BOUNDARY     24   LAYER   1   ROW     2   COL     9   RATE    -75.9375    
 BOUNDARY     25   LAYER   1   ROW     2   COL    10   RATE    -75.9375    
 BOUNDARY     26   LAYER   1   ROW     2   COL    11   RATE    -75.9375    
 BOUNDARY     27   LAYER   1   ROW     2   COL    12   RATE    -13.8555    
 BOUNDARY     28   LAYER   1   ROW     2   COL    13   RATE     0.00000    
 BOUNDARY     29   LAYER   1   ROW     2   COL    14   RATE     0.00000    
 BOUNDARY     30   LAYER   1   ROW     2   COL    15   RATE     0.00000    
 BOUNDARY     31   LAYER   1   ROW     3   COL     1   RATE     0.00000    
 BOUNDARY     32   LAYER   1   ROW     3   COL     2   RATE     0.00000    
 BOUNDARY     33   LAYER   1   ROW     3   COL     3   RATE    -16.7155    
 BOUNDARY     34   LAYER   1   ROW     3   COL     4   RATE    -75.9375    
 BOUNDARY     35   LAYER   1   ROW     3   COL     5   RATE    -75.9375    
 BOUNDARY     36   LAYER   1   ROW     3   COL     6   RATE    -75.9375    
 BOUNDARY     37   LAYER   1   ROW     3   COL     7   RATE    -75.9375    
 BOUNDARY     38   LAYER   1   ROW     3   COL     8   RATE    -75.9375    
 BOUNDARY     39   LAYER   1   ROW     3   COL     9   RATE    -75.9375    
 BOUNDARY     40   LAYER   1   ROW     3   COL    10   RATE    -75.9375    
 BOUNDARY     41   LAYER   1   ROW     3   COL    11   RATE    -75.9375    
 BOUNDARY     42   LAYER   1   ROW     3   COL    12   RATE    -16.0843    
 BOUNDARY     43   LAYER   1   ROW     3   COL    13   RATE    -1.35615    
 BOUNDARY     44   LAYER   1   ROW     3   COL    14   RATE     0.00000    
 BOUNDARY     45   LAYER   1   ROW     3   COL    15   RATE     0.00000    
 BOUNDARY     46   LAYER   1   ROW     4   COL     1   RATE     0.00000    
 BOUNDARY     47   LAYER   1   ROW     4   COL     2   RATE    -2.19480    
 BOUNDARY     48   LAYER   1   ROW     4   COL     3   RATE    -19.6511    
 BOUNDARY     49   LAYER   1   ROW     4   COL     4   RATE    -75.9375    
 BOUNDARY     50   LAYER   1   ROW     4   COL     5   RATE    -75.9375    
 BOUNDARY     51   LAYER   1   ROW     4   COL     6   RATE    -75.9375    
 BOUNDARY     52   LAYER   1   ROW     4   COL     7   RATE    -75.9375    
 BOUNDARY     53   LAYER   1   ROW     4   COL     8   RATE    -75.9375    
 BOUNDARY     54   LAYER   1   ROW     4   COL     9   RATE    -75.9375    
 BOUNDARY     55   LAYER   1   ROW     4   COL    10   RATE    -75.9375    
 BOUNDARY     56   LAYER   1   ROW     4   COL    11   RATE    -75.9375    
 BOUNDARY     57   LAYER   1   ROW     4   COL    12   RATE    -18.2119    
 BOUNDARY     58   LAYER   1   ROW     4   COL    13   RATE    -2.46974    
 BOUNDARY     59   LAYER   1   ROW     4   COL    14   RATE     0.00000    
 BOUNDARY     60   LAYER   1   ROW     4   COL    15   RATE     0.00000    
 BOUNDARY     61   LAYER   1   ROW     5   COL     1   RATE     0.00000    
 BOUNDARY     62   LAYER   1   ROW     5   COL     2   RATE    -4.45279    
 BOUNDARY     63   LAYER   1   ROW     5   COL     3   RATE    -22.6798    
 BOUNDARY     64   LAYER   1   ROW     5   COL     4   RATE    -75.9375    
 BOUNDARY     65   LAYER   1   ROW     5   COL     5   RATE    -75.9375    
 BOUNDARY     66   LAYER   1   ROW     5   COL     6   RATE    -75.9375    
 BOUNDARY     67   LAYER   1   ROW     5   COL     7   RATE    -75.9375    
 BOUNDARY     68   LAYER   1   ROW     5   COL     8   RATE    -75.9375    
 BOUNDARY     69   LAYER   1   ROW     5   COL     9   RATE    -75.9375    
 BOUNDARY     70   LAYER   1   ROW     5   COL    10   RATE    -75.9375    
 BOUNDARY     71   LAYER   1   ROW     5   COL    11   RATE    -75.9375    
 BOUNDARY     72   LAYER   1   ROW     5   COL    12   RATE    -19.6873    
 BOUNDARY     73   LAYER   1   ROW     5   COL    13   RATE    -3.16872    
 BOUNDARY     74   LAYER   1   ROW     5   COL    14   RATE     0.00000    
 BOUNDARY     75   LAYER   1   ROW     5   COL    15   RATE     0.00000    
 BOUNDARY     76   LAYER   1   ROW     6   COL     1   RATE     0.00000    
 BOUNDARY     77   LAYER   1   ROW     6   COL     2   RATE    -3.36835    
 BOUNDARY     78   LAYER   1   ROW     6   COL     3   RATE    -25.1916    
 BOUNDARY     79   LAYER   1   ROW     6   COL     4   RATE    -75.9375    
 BOUNDARY     80   LAYER   1   ROW     6   COL     5   RATE    -75.9375    
 BOUNDARY     81   LAYER   1   ROW     6   COL     6   RATE    -75.9375    
 BOUNDARY     82   LAYER   1   ROW     6   COL     7   RATE    -75.9375    
 BOUNDARY     83   LAYER   1   ROW     6   COL     8   RATE    -75.9375    
 BOUNDARY     84   LAYER   1   ROW     6   COL     9   RATE    -75.9375    
 BOUNDARY     85   LAYER   1   ROW     6   COL    10   RATE    -75.9375    
 BOUNDARY     86   LAYER   1   ROW     6   COL    11   RATE    -75.9375    
 BOUNDARY     87   LAYER   1   ROW     6   COL    12   RATE    -20.1805    
 BOUNDARY     88   LAYER   1   ROW     6   COL    13   RATE    -3.13826    
 BOUNDARY     89   LAYER   1   ROW     6   COL    14   RATE     0.00000    
 BOUNDARY     90   LAYER   1   ROW     6   COL    15   RATE     0.00000    
 BOUNDARY     91   LAYER   1   ROW     7   COL     1   RATE     0.00000    
 BOUNDARY     92   LAYER   1   ROW     7   COL     2   RATE   -0.716650    
 BOUNDARY     93   LAYER   1   ROW     7   COL     3   RATE    -30.4294    
 BOUNDARY     94   LAYER   1   ROW     7   COL     4   RATE    -75.9375    
 BOUNDARY     95   LAYER   1   ROW     7   COL     5   RATE    -75.9375    
 BOUNDARY     96   LAYER   1   ROW     7   COL     6   RATE    -75.9375    
 BOUNDARY     97   LAYER   1   ROW     7   COL     7   RATE    -75.9375    
 BOUNDARY     98   LAYER   1   ROW     7   COL     8   RATE    -75.9375    
 BOUNDARY     99   LAYER   1   ROW     7   COL     9   RATE    -75.9375    
 BOUNDARY    100   LAYER   1   ROW     7   COL    10   RATE    -75.9375    
 BOUNDARY    101   LAYER   1   ROW     7   COL    11   RATE    -75.9375    
 BOUNDARY    102   LAYER   1   ROW     7   COL    12   RATE    -20.0548    
 BOUNDARY    103   LAYER   1   ROW     7   COL    13   RATE    -2.57711    
 BOUNDARY    104   LAYER   1   ROW     7   COL    14   RATE     0.00000    
 BOUNDARY    105   LAYER   1   ROW     7   COL    15   RATE     0.00000    
 BOUNDARY    106   LAYER   1   ROW     8   COL     1   RATE     0.00000    
 BOUNDARY    107   LAYER   1   ROW     8   COL     2   RATE    -8.35363    
 BOUNDARY    108   LAYER   1   ROW     8   COL     3   RATE    -75.9375    
 BOUNDARY    109   LAYER   1   ROW     8   COL     4   RATE    -75.9375    
 BOUNDARY    110   LAYER   1   ROW     8   COL     5   RATE    -75.9375    
 BOUNDARY    111   LAYER   1   ROW     8   COL     6   RATE    -75.9375    
 BOUNDARY    112   LAYER   1   ROW     8   COL     7   RATE    -75.9375    
 BOUNDARY    113   LAYER   1   ROW     8   COL     8   RATE    -75.9375    
 BOUNDARY    114   LAYER   1   ROW     8   COL     9   RATE    -75.9375    
 BOUNDARY    115   LAYER   1   ROW     8   COL    10   RATE    -75.9375    
 BOUNDARY    116   LAYER   1   ROW     8   COL    11   RATE    -75.9375    
 BOUNDARY    117   LAYER   1   ROW     8   COL    12   RATE    -20.3472    
 BOUNDARY    118   LAYER   1   ROW     8   COL    13   RATE    -2.57617    
 BOUNDARY    119   LAYER   1   ROW     8   COL    14   RATE     0.00000    
 BOUNDARY    120   LAYER   1   ROW     8   COL    15   RATE     0.00000    
 BOUNDARY    121   LAYER   1   ROW     9   COL     1   RATE    -14.1096    
 BOUNDARY    122   LAYER   1   ROW     9   COL     2   RATE    -44.9391    
 BOUNDARY    123   LAYER   1   ROW     9   COL     3   RATE    -75.9375    
 BOUNDARY    124   LAYER   1   ROW     9   COL     4   RATE    -75.9375    
 BOUNDARY    125   LAYER   1   ROW     9   COL     5   RATE    -75.9375    
 BOUNDARY    126   LAYER   1   ROW     9   COL     6   RATE    -75.9375    
 BOUNDARY    127   LAYER   1   ROW     9   COL     7   RATE    -75.9375    
 BOUNDARY    128   LAYER   1   ROW     9   COL     8   RATE    -75.9375    
 BOUNDARY    129   LAYER   1   ROW     9   COL     9   RATE    -75.9375    
 BOUNDARY    130   LAYER   1   ROW     9   COL    10   RATE    -75.9375    
 BOUNDARY    131   LAYER   1   ROW     9   COL    11   RATE    -75.9375    
 BOUNDARY    132   LAYER   1   ROW     9   COL    12   RATE    -21.1779    
 BOUNDARY    133   LAYER   1   ROW     9   COL    13   RATE    -3.19193    
 BOUNDARY    134   LAYER   1   ROW     9   COL    14   RATE     0.00000    
 BOUNDARY    135   LAYER   1   ROW     9   COL    15   RATE     0.00000    
 BOUNDARY    136   LAYER   1   ROW    10   COL     1   RATE    -51.1843    
 BOUNDARY    137   LAYER   1   ROW    10   COL     2   RATE    -75.9375    
 BOUNDARY    138   LAYER   1   ROW    10   COL     3   RATE    -75.9375    
 BOUNDARY    139   LAYER   1   ROW    10   COL     4   RATE    -75.9375    
 BOUNDARY    140   LAYER   1   ROW    10   COL     5   RATE    -75.9375    
 BOUNDARY    141   LAYER   1   ROW    10   COL     6   RATE    -75.9375    
 BOUNDARY    142   LAYER   1   ROW    10   COL     7   RATE    -75.9375    
 BOUNDARY    143   LAYER   1   ROW    10   COL     8   RATE    -75.9375    
 BOUNDARY    144   LAYER   1   ROW    10   COL     9   RATE    -75.9375    
 BOUNDARY    145   LAYER   1   ROW    10   COL    10   RATE    -75.9375    
 BOUNDARY    146   LAYER   1   ROW    10   COL    11   RATE    -75.9375    
 BOUNDARY    147   LAYER   1   ROW    10   COL    12   RATE    -21.7809    
 BOUNDARY    148   LAYER   1   ROW    10   COL    13   RATE    -3.59040    
 BOUNDARY    149   LAYER   1   ROW    10   COL    14   RATE     0.00000    
 BOUNDARY    150   LAYER   1   ROW    10   COL    15   RATE     0.00000    

 HEAD WILL BE SAVED ON UNIT 1017 AT END OF TIME STEP    4, STRESS PERIOD    2

 IBOUND WILL BE SAVED ON UNIT 1018 AT END OF TIME STEP    4, STRESS PERIOD    2
WEL   no.    1 value from time series:   0.0000     for time:  5.000     to  6.000    
WEL   no.    2 value from time series:   0.0000     for time:  5.000     to  6.000    
RIV   no.    1 value from time series:   103.25     for time:  5.000     to  6.000    
RIV   no.    2 value from time series:   103.25     for time:  5.000     to  6.000    
RIV   no.    3 value from time series:   113.07     for time:  5.000     to  6.000    
RIV   no.    4 value from time series:   113.07     for time:  5.000     to  6.000    
RIV   no.    5 value from time series:   115.75     for time:  5.000     to  6.000    
RIV   no.    6 value from time series:   115.75     for time:  5.000     to  6.000    
RIV   no.    7 value from time series:   105.47     for time:  5.000     to  6.000    
RIV   no.    8 value from time series:   105.47     for time:  5.000     to  6.000    
RIV   no.    9 value from time series:   115.00     for time:  5.000     to  6.000    
RIV   no.   10 value from time series:   115.00     for time:  5.000     to  6.000    
WEL   no.    1 value from time series:   0.0000     for time:  5.000     to  6.000    
WEL   no.    2 value from time series:   0.0000     for time:  5.000     to  6.000    
RIV   no.    1 value from time series:   103.25     for time:  5.000     to  6.000    
RIV   no.    2 value from time series:   103.25     for time:  5.000     to  6.000    
RIV   no.    3 value from time series:   113.07     for time:  5.000     to  6.000    
RIV   no.    4 value from time series:   113.07     for time:  5.000     to  6.000    
RIV   no.    5 value from time series:   115.75     for time:  5.000     to  6.000    
RIV   no.    6 value from time series:   115.75     for time:  5.000     to  6.000    
RIV   no.    7 value from time series:   105.47     for time:  5.000     to  6.000    
RIV   no.    8 value from time series:   105.47     for time:  5.000     to  6.000    
RIV   no.    9 value from time series:   115.00     for time:  5.000     to  6.000    
RIV   no.   10 value from time series:   115.00     for time:  5.000     to  6.000    

 OUTPUT CONTROL FOR STRESS PERIOD    2   TIME STEP    5
    SAVE BUDGET
    SAVE HEAD
    SAVE HEAD FOR ALL LAYERS
 UBDSV1 SAVING          STORAGE ON UNIT   1016 AT TIME STEP      5, STRESS PERIOD      2
 UBDSV1 SAVING FLOW RIGHT FACE  ON UNIT   1016 AT TIME STEP      5, STRESS PERIOD      2
 UBDSV1 SAVING FLOW FRONT FACE  ON UNIT   1016 AT TIME STEP      5, STRESS PERIOD      2
 UBDSV1 SAVING FLOW LOWER FACE  ON UNIT   1016 AT TIME STEP      5, STRESS PERIOD      2
 UBDSV4 SAVING WELLS NEAR RIVER ON UNIT   1016 AT TIME STEP      5, STRESS PERIOD      2

 WELLS NEAR RIVER   PERIOD  2   STEP  5
 BOUNDARY      1   LAYER   2   ROW     3   COL     4   RATE     0.00000      WELL_1
 BOUNDARY      2   LAYER   2   ROW     8   COL     4   RATE     0.00000      WELL_2
 BOUNDARY      3   LAYER   2   ROW     4   COL     6   RATE   -10.00000    
 BOUNDARY      4   LAYER   2   ROW     5   COL     8   RATE    -20.0000    
 BOUNDARY      5   LAYER   2   ROW     2   COL     9   RATE    -40.0000    
 UBDSV4 SAVING RIVER            ON UNIT   1016 AT TIME STEP      5, STRESS PERIOD      2

 RIVER              PERIOD  2   STEP  5
 BOUNDARY      1   LAYER   1   ROW     1   COL    15   RATE    -2849.62    
 BOUNDARY      2   LAYER   1   ROW     2   COL    15   RATE    -3944.54      RIV2
 BOUNDARY      3   LAYER   1   ROW     3   COL    15   RATE    -562.191      RIV3
 BOUNDARY      4   LAYER   1   ROW     4   COL    15   RATE    -2044.76    
 BOUNDARY      5   LAYER   1   ROW     5   COL    15   RATE    -1785.44    
 BOUNDARY      6   LAYER   1   ROW     6   COL    15   RATE    -1163.22    
 BOUNDARY      7   LAYER   1   ROW     7   COL    15   RATE    -4889.81      RIVX
 BOUNDARY      8   LAYER   1   ROW     8   COL    15   RATE    -4661.85      RIVX
 BOUNDARY      9   LAYER   1   ROW     9   COL    15   RATE    -446.184      RIVX
 BOUNDARY     10   LAYER   1   ROW    10   COL    15   RATE    -1294.65    

 GHB LAKES          PERIOD  2   STEP  5
 BOUNDARY      1   LAYER   1   ROW     3   COL     1   RATE    -14419.2    
 BOUNDARY      2   LAYER   1   ROW     7   COL     1   RATE    -1821.97      GHB2_UPPER
 BOUNDARY      3   LAYER   1   ROW     7   COL     1   RATE    -13202.4      GHB2_LOWER
 UBDSV4 SAVING RECHARGE         ON UNIT   1016 AT TIME STEP      5, STRESS PERIOD      2

 RECHARGE           PERIOD  2   STEP  5
 BOUNDARY      1   LAYER   1   ROW     1   COL     1   RATE     511.458    
 BOUNDARY      2   LAYER   1   ROW     1   COL     2   RATE     511.458    
 BOUNDARY      3   LAYER   1   ROW     1   COL     3   RATE     511.458    
 BOUNDARY      4   LAYER   1   ROW     1   COL     4   RATE     511.458    
 BOUNDARY      5   LAYER   1   ROW     1   COL     5   RATE     511.458    
 BOUNDARY      6   LAYER   1   ROW     1   COL     6   RATE     511.458    
 BOUNDARY      7   LAYER   1   ROW     1   COL     7   RATE     511.458    
 BOUNDARY      8   LAYER   1   ROW     1   COL     8   RATE     511.458    
 BOUNDARY      9   LAYER   1   ROW     1   COL     9   RATE     511.458    
 BOUNDARY     10   LAYER   1   ROW     1   COL    10   RATE     511.458    
 BOUNDARY     11   LAYER   1   ROW     1   COL    11   RATE     511.458    
 BOUNDARY     12   LAYER   1   ROW     1   COL    12   RATE     511.458    
 BOUNDARY     13   LAYER   1   ROW     1   COL    13   RATE     511.458    
 BOUNDARY     14   LAYER   1   ROW     1   COL    14   RATE     511.458    
 BOUNDARY     15   LAYER   1   ROW     1   COL    15   RATE     511.458    
 BOUNDARY     16   LAYER   1   ROW     2   COL     1   RATE     511.458    
 BOUNDARY     17   LAYER   1   ROW     2   COL     2   RATE     511.458    
 BOUNDARY     18   LAYER   1   ROW     2   COL     3   RATE     511.458    
 BOUNDARY     19   LAYER   1   ROW     2   COL     4   RATE     511.458    
 BOUNDARY     20   LAYER   1   ROW     2   COL     5   RATE     511.458    
 BOUNDARY     21   LAYER   1   ROW     2   COL     6   RATE     511.458    
 BOUNDARY     22   LAYER   1   ROW     2   COL     7   RATE     511.458    
 BOUNDARY     23   LAYER   1   ROW     2   COL     8   RATE     511.458    
 BOUNDARY     24   LAYER   1   ROW     2   COL     9   RATE     511.458    
 BOUNDARY     25   LAYER   1   ROW     2   COL    10   RATE     511.458    
 BOUNDARY     26   LAYER   1   ROW     2   COL    11   RATE     511.458    
 BOUNDARY     27   LAYER   1   ROW     2   COL    12   RATE     511.458    
 BOUNDARY     28   LAYER   1   ROW     2   COL    13   RATE     511.458    
 BOUNDARY     29   LAYER   1   ROW     2   COL    14   RATE     511.458    
 BOUNDARY     30   LAYER   1   ROW     2   COL    15   RATE     511.458    
 BOUNDARY     31   LAYER   1   ROW     3   COL     1   RATE     511.458    
 BOUNDARY     32   LAYER   1   ROW     3   COL     2   RATE     511.458    
 BOUNDARY     33   LAYER   1   ROW     3   COL     3   RATE     511.458    
 BOUNDARY     34   LAYER   1   ROW     3   COL     4   RATE     511.458    
 BOUNDARY     35   LAYER   1   ROW     3   COL     5   RATE     511.458    
 BOUNDARY     36   LAYER   1   ROW     3   COL     6   RATE     511.458    
 BOUNDARY     37   LAYER   1   ROW     3   COL     7   RATE     511.458    
 BOUNDARY     38   LAYER   1   ROW     3   COL     8   RATE     511.458    
 BOUNDARY     39   LAYER   1   ROW     3   COL     9   RATE     511.458    
 BOUNDARY     40   LAYER   1   ROW     3   COL    10   RATE     511.458    
 BOUNDARY     41   LAYER   1   ROW     3   COL    11   RATE     511.458    
 BOUNDARY     42   LAYER   1   ROW     3   COL    12   RATE     511.458    
 BOUNDARY     43   LAYER   1   ROW     3   COL    13   RATE     511.458    
 BOUNDARY     44   LAYER   1   ROW     3   COL    14   RATE     511.458    
 BOUNDARY     45   LAYER   1   ROW     3   COL    15   RATE     511.458    
 BOUNDARY     46   LAYER   1   ROW     4   COL     1   RATE     511.458    
 BOUNDARY     47   LAYER   1   ROW     4   COL     2   RATE     511.458    
 BOUNDARY     48   LAYER   1   ROW     4   COL     3   RATE     511.458    
 BOUNDARY     49   LAYER   1   ROW     4   COL     4   RATE     511.458    
 BOUNDARY     50   LAYER   1   ROW     4   COL     5   RATE     511.458    
 BOUNDARY     51   LAYER   1   ROW     4   COL     6   RATE     511.458    
 BOUNDARY     52   LAYER   1   ROW     4   COL     7   RATE     511.458    
 BOUNDARY     53   LAYER   1   ROW     4   COL     8   RATE     511.458    
 BOUNDARY     54   LAYER   1   ROW     4   COL     9   RATE     511.458    
 BOUNDARY     55   LAYER   1   ROW     4   COL    10   RATE     511.458    
 BOUNDARY     56   LAYER   1   ROW     4   COL    11   RATE     511.458    
 BOUNDARY     57   LAYER   1   ROW     4   COL    12   RATE     511.458    
 BOUNDARY     58   LAYER   1   ROW     4   COL    13   RATE     511.458    
 BOUNDARY     59   LAYER   1   ROW     4   COL    14   RATE     511.458    
 BOUNDARY     60   LAYER   1   ROW     4   COL    15   RATE     511.458    
 BOUNDARY     61   LAYER   1   ROW     5   COL     1   RATE     511.458    
 BOUNDARY     62   LAYER   1   ROW     5   COL     2   RATE     511.458    
 BOUNDARY     63   LAYER   1   ROW     5   COL     3   RATE     511.458    
 BOUNDARY     64   LAYER   1   ROW     5   COL     4   RATE     511.458    
 BOUNDARY     65   LAYER   1   ROW     5   COL     5   RATE     511.458    
 BOUNDARY     66   LAYER   1   ROW     5   COL     6   RATE     511.458    
 BOUNDARY     67   LAYER   1   ROW     5   COL     7   RATE     511.458    
 BOUNDARY     68   LAYER   1   ROW     5   COL     8   RATE     511.458    
 BOUNDARY     69   LAYER   1   ROW     5   COL     9   RATE     511.458    
 BOUNDARY     70   LAYER   1   ROW     5   COL    10   RATE     511.458    
 BOUNDARY     71   LAYER   1   ROW     5   COL    11   RATE     511.458    
 BOUNDARY     72   LAYER   1   ROW     5   COL    12   RATE     511.458    
 BOUNDARY     73   LAYER   1   ROW     5   COL    13   RATE     511.458    
 BOUNDARY     74   LAYER   1   ROW     5   COL    14   RATE     511.458    
 BOUNDARY     75   LAYER   1   ROW     5   COL    15   RATE     511.458    
 BOUNDARY     76   LAYER   1   ROW     6   COL     1   RATE     511.458    
 BOUNDARY     77   LAYER   1   ROW     6   COL     2   RATE     511.458    
 BOUNDARY     78   LAYER   1   ROW     6   COL     3   RATE     511.458    
 BOUNDARY     79   LAYER   1   ROW     6   COL     4   RATE     511.458    
 BOUNDARY     80   LAYER   1   ROW     6   COL     5   RATE     511.458    
 BOUNDARY     81   LAYER   1   ROW     6   COL     6   RATE     511.458    
 BOUNDARY     82   LAYER   1   ROW     6   COL     7   RATE     511.458    
 BOUNDARY     83   LAYER   1   ROW     6   COL     8   RATE     511.458    
 BOUNDARY     84   LAYER   1   ROW     6   COL     9   RATE     511.458    
 BOUNDARY     85   LAYER   1   ROW     6   COL    10   RATE     511.458    
 BOUNDARY     86   LAYER   1   ROW     6   COL    11   RATE     511.458    
 BOUNDARY     87   LAYER   1   ROW     6   COL    12   RATE     511.458    
 BOUNDARY     88   LAYER   1   ROW     6   COL    13   RATE     511.458    
 BOUNDARY     89   LAYER   1   ROW     6   COL    14   RATE     511.458    
 BOUNDARY     90   LAYER   1   ROW     6   COL    15   RATE     511.458    
 BOUNDARY     91   LAYER   1   ROW     7   COL     1   RATE     511.458    
 BOUNDARY     92   LAYER   1   ROW     7   COL     2   RATE     511.458    
 BOUNDARY     93   LAYER   1   ROW     7   COL     3   RATE     511.458    
 BOUNDARY     94   LAYER   1   ROW     7   COL     4   RATE     511.458    
 BOUNDARY     95   LAYER   1   ROW     7   COL     5   RATE     511.458    
 BOUNDARY     96   LAYER   1   ROW     7   COL     6   RATE     511.458    
 BOUNDARY     97   LAYER   1   ROW     7   COL     7   RATE     511.458    
 BOUNDARY     98   LAYER   1   ROW     7   COL     8   RATE     511.458    
 BOUNDARY     99   LAYER   1   ROW     7   COL     9   RATE     511.458    
 BOUNDARY    100   LAYER   1   ROW     7   COL    10   RATE     511.458    
 BOUNDARY    101   LAYER   1   ROW     7   COL    11   RATE     511.458    
 BOUNDARY    102   LAYER   1   ROW     7   COL    12   RATE     511.458    
 BOUNDARY    103   LAYER   1   ROW     7   COL    13   RATE     511.458    
 BOUNDARY    104   LAYER   1   ROW     7   COL    14   RATE     511.458    
 BOUNDARY    105   LAYER   1   ROW     7   COL    15   RATE     511.458    
 BOUNDARY    106   LAYER   1   ROW     8   COL     1   RATE     511.458    
 BOUNDARY    107   LAYER   1   ROW     8   COL     2   RATE     511.458    
 BOUNDARY    108   LAYER   1   ROW     8   COL     3   RATE     511.458    
 BOUNDARY    109   LAYER   1   ROW     8   COL     4   RATE     511.458    
 BOUNDARY    110   LAYER   1   ROW     8   COL     5   RATE     511.458    
 BOUNDARY    111   LAYER   1   ROW     8   COL     6   RATE     511.458    
 BOUNDARY    112   LAYER   1   ROW     8   COL     7   RATE     511.458    
 BOUNDARY    113   LAYER   1   ROW     8   COL     8   RATE     511.458    
 BOUNDARY    114   LAYER   1   ROW     8   COL     9   RATE     511.458    
 BOUNDARY    115   LAYER   1   ROW     8   COL    10   RATE     511.458    
 BOUNDARY    116   LAYER   1   ROW     8   COL    11   RATE     511.458    
 BOUNDARY    117   LAYER   1   ROW     8   COL    12   RATE     511.458    
 BOUNDARY    118   LAYER   1   ROW     8   COL    13   RATE     511.458    
 BOUNDARY    119   LAYER   1   ROW     8   COL    14   RATE     511.458    
 BOUNDARY    120   LAYER   1   ROW     8   COL    15   RATE     511.458    
 BOUNDARY    121   LAYER   1   ROW     9   COL     1   RATE     511.458    
 BOUNDARY    122   LAYER   1   ROW     9   COL     2   RATE     511.458    
 BOUNDARY    123   LAYER   1   ROW     9   COL     3   RATE     511.458    
 BOUNDARY    124   LAYER   1   ROW     9   COL     4   RATE     511.458    
 BOUNDARY    125   LAYER   1   ROW     9   COL     5   RATE     511.458    
 BOUNDARY    126   LAYER   1   ROW     9   COL     6   RATE     511.458    
 BOUNDARY    127   LAYER   1   ROW     9   COL     7   RATE     511.458    
 BOUNDARY    128   LAYER   1   ROW     9   COL     8   RATE     511.458    
 BOUNDARY    129   LAYER   1   ROW     9   COL     9   RATE     511.458    
 BOUNDARY    130   LAYER   1   ROW     9   COL    10   RATE     511.458    
 BOUNDARY    131   LAYER   1   ROW     9   COL    11   RATE     511.458    
 BOUNDARY    132   LAYER   1   ROW     9   COL    12   RATE     511.458    
 BOUNDARY    133   LAYER   1   ROW     9   COL    13   RATE     511.458    
 BOUNDARY    134   LAYER   1   ROW     9   COL    14   RATE     511.458    
 BOUNDARY    135   LAYER   1   ROW     9   COL    15   RATE     511.458    
 BOUNDARY    136   LAYER   1   ROW    10   COL     1   RATE     511.458    
 BOUNDARY    137   LAYER   1   ROW    10   COL     2   RATE     511.458    
 BOUNDARY    138   LAYER   1   ROW    10   COL     3   RATE     511.458    
 BOUNDARY    139   LAYER   1   ROW    10   COL     4   RATE     511.458    
 BOUNDARY    140   LAYER   1   ROW    10   COL     5   RATE     511.458    
 BOUNDARY    141   LAYER   1   ROW    10   COL     6   RATE     511.458    
 BOUNDARY    142   LAYER   1   ROW    10   COL     7   RATE     511.458    
 BOUNDARY    143   LAYER   1   ROW    10   COL     8   RATE     511.458    
 BOUNDARY    144   LAYER   1   ROW    10   COL     9   RATE     511.458    
 BOUNDARY    145   LAYER   1   ROW    10   COL    10   RATE     511.458    
 BOUNDARY    146   LAYER   1   ROW    10   COL    11   RATE     511.458    
 BOUNDARY    147   LAYER   1   ROW    10   COL    12   RATE     511.458    
 BOUNDARY    148   LAYER   1   ROW    10   COL    13   RATE     511.458    
 BOUNDARY    149   LAYER   1   ROW    10   COL    14   RATE     511.458    
 BOUNDARY    150   LAYER   1   ROW    10   COL    15   RATE     511.458    
 UBDSV4 SAVING ET SEGS          ON UNIT   1016 AT TIME STEP      5, STRESS PERIOD      2

 ET SEGS            PERIOD  2   STEP  5
 BOUNDARY      1   LAYER   1   ROW     1   COL     1   RATE    -1.57431    
 BOUNDARY      2   LAYER   1   ROW     1   COL     2   RATE    -6.79287    
 BOUNDARY      3   LAYER   1   ROW     1   COL     3   RATE    -36.3716    
 BOUNDARY      4   LAYER   1   ROW     1   COL     4   RATE    -76.1458    
 BOUNDARY      5   LAYER   1   ROW     1   COL     5   RATE    -76.1458    
 BOUNDARY      6   LAYER   1   ROW     1   COL     6   RATE    -76.1458    
 BOUNDARY      7   LAYER   1   ROW     1   COL     7   RATE    -76.1458    
 BOUNDARY      8   LAYER   1   ROW     1   COL     8   RATE    -76.1458    
 BOUNDARY      9   LAYER   1   ROW     1   COL     9   RATE    -76.1458    
 BOUNDARY     10   LAYER   1   ROW     1   COL    10   RATE    -76.1458    
 BOUNDARY     11   LAYER   1   ROW     1   COL    11   RATE    -76.1458    
 BOUNDARY     12   LAYER   1   ROW     1   COL    12   RATE    -12.5715    
 BOUNDARY     13   LAYER   1   ROW     1   COL    13   RATE     0.00000    
 BOUNDARY     14   LAYER   1   ROW     1   COL    14   RATE     0.00000    
 BOUNDARY     15   LAYER   1   ROW     1   COL    15   RATE     0.00000    
 BOUNDARY     16   LAYER   1   ROW     2   COL     1   RATE     0.00000    
 BOUNDARY     17   LAYER   1   ROW     2   COL     2   RATE    -3.35442    
 BOUNDARY     18   LAYER   1   ROW     2   COL     3   RATE    -21.3263    
 BOUNDARY     19   LAYER   1   ROW     2   COL     4   RATE    -76.1458    
 BOUNDARY     20   LAYER   1   ROW     2   COL     5   RATE    -76.1458    
 BOUNDARY     21   LAYER   1   ROW     2   COL     6   RATE    -76.1458    
 BOUNDARY     22   LAYER   1   ROW     2   COL     7   RATE    -76.1458    
 BOUNDARY     23   LAYER   1   ROW     2   COL     8   RATE    -76.1458    
 BOUNDARY     24   LAYER   1   ROW     2   COL     9   RATE    -76.1458    
 BOUNDARY     25   LAYER   1   ROW     2   COL    10   RATE    -76.1458    
 BOUNDARY     26   LAYER   1   ROW     2   COL    11   RATE    -76.1458    
 BOUNDARY     27   LAYER   1   ROW     2   COL    12   RATE    -13.8966    
 BOUNDARY     28   LAYER   1   ROW     2   COL    13   RATE     0.00000    
 BOUNDARY     29   LAYER   1   ROW     2   COL    14   RATE     0.00000    
 BOUNDARY     30   LAYER   1   ROW     2   COL    15   RATE     0.00000    
 BOUNDARY     31   LAYER   1   ROW     3   COL     1   RATE     0.00000    
 BOUNDARY     32   LAYER   1   ROW     3   COL     2   RATE     0.00000    
 BOUNDARY     33   LAYER   1   ROW     3   COL     3   RATE    -16.7647    
 BOUNDARY     34   LAYER   1   ROW     3   COL     4   RATE    -76.1458    
 BOUNDARY     35   LAYER   1   ROW     3   COL     5   RATE    -76.1458    
 BOUNDARY     36   LAYER   1   ROW     3   COL     6   RATE    -76.1458    
 BOUNDARY     37   LAYER   1   ROW     3   COL     7   RATE    -76.1458    
 BOUNDARY     38   LAYER   1   ROW     3   COL     8   RATE    -76.1458    
 BOUNDARY     39   LAYER   1   ROW     3   COL     9   RATE    -76.1458    
 BOUNDARY     40   LAYER   1   ROW     3   COL    10   RATE    -76.1458    
 BOUNDARY     41   LAYER   1   ROW     3   COL    11   RATE    -76.1458    
 BOUNDARY     42   LAYER   1   ROW     3   COL    12   RATE    -16.1317    
 BOUNDARY     43   LAYER   1   ROW     3   COL    13   RATE    -1.36064    
 BOUNDARY     44   LAYER   1   ROW     3   COL    14   RATE     0.00000    
 BOUNDARY     45   LAYER   1   ROW     3   COL    15   RATE     0.00000    
 BOUNDARY     46   LAYER   1   ROW     4   COL     1   RATE     0.00000    
 BOUNDARY     47   LAYER   1   ROW     4   COL     2   RATE    -2.20152    
 BOUNDARY     48   LAYER   1   ROW     4   COL     3   RATE    -19.7085    
 BOUNDARY     49   LAYER   1   ROW     4   COL     4   RATE    -76.1458    
 BOUNDARY     50   LAYER   1   ROW     4   COL     5   RATE    -76.1458    
 BOUNDARY     51   LAYER   1   ROW     4   COL     6   RATE    -76.1458    
 BOUNDARY     52   LAYER   1   ROW     4   COL     7   RATE    -76.1458    
 BOUNDARY     53   LAYER   1   ROW     4   COL     8   RATE    -76.1458    
 BOUNDARY     54   LAYER   1   ROW     4   COL     9   RATE    -76.1458    
 BOUNDARY     55   LAYER   1   ROW     4   COL    10   RATE    -76.1458    
 BOUNDARY     56   LAYER   1   ROW     4   COL    11   RATE    -76.1458    
 BOUNDARY     57   LAYER   1   ROW     4   COL    12   RATE    -18.2653    
 BOUNDARY     58   LAYER   1   ROW     4   COL    13   RATE    -2.47730    
 BOUNDARY     59   LAYER   1   ROW     4   COL    14   RATE     0.00000    
 BOUNDARY     60   LAYER   1   ROW     4   COL    15   RATE     0.00000    
 BOUNDARY     61   LAYER   1   ROW     5   COL     1   RATE     0.00000    
 BOUNDARY     62   LAYER   1   ROW     5   COL     2   RATE    -4.46574    
 BOUNDARY     63   LAYER   1   ROW     5   COL     3   RATE    -22.7457    
 BOUNDARY     64   LAYER   1   ROW     5   COL     4   RATE    -76.1458    
 BOUNDARY     65   LAYER   1   ROW     5   COL     5   RATE    -76.1458    
 BOUNDARY     66   LAYER   1   ROW     5   COL     6   RATE    -76.1458    
 BOUNDARY     67   LAYER   1   ROW     5   COL     7   RATE    -76.1458    
 BOUNDARY     68   LAYER   1   ROW     5   COL     8   RATE    -76.1458    
 BOUNDARY     69   LAYER   1   ROW     5   COL     9   RATE    -76.1458    
 BOUNDARY     70   LAYER   1   ROW     5   COL    10   RATE    -76.1458    
 BOUNDARY     71   LAYER   1   ROW     5   COL    11   RATE    -76.1458    
 BOUNDARY     72   LAYER   1   ROW     5   COL    12   RATE    -19.7449    
 BOUNDARY     73   LAYER   1   ROW     5   COL    13   RATE    -3.17820    
 BOUNDARY     74   LAYER   1   ROW     5   COL    14   RATE     0.00000    
 BOUNDARY     75   LAYER   1   ROW     5   COL    15   RATE     0.00000    
 BOUNDARY     76   LAYER   1   ROW     6   COL     1   RATE     0.00000    
 BOUNDARY     77   LAYER   1   ROW     6   COL     2   RATE    -3.37831    
 BOUNDARY     78   LAYER   1   ROW     6   COL     3   RATE    -25.2808    
 BOUNDARY     79   LAYER   1   ROW     6   COL     4   RATE    -76.1458    
 BOUNDARY     80   LAYER   1   ROW     6   COL     5   RATE    -76.1458    
 BOUNDARY     81   LAYER   1   ROW     6   COL     6   RATE    -76.1458    
 BOUNDARY     82   LAYER   1   ROW     6   COL     7   RATE    -76.1458    
 BOUNDARY     83   LAYER   1   ROW     6   COL     8   RATE    -76.1458    
 BOUNDARY     84   LAYER   1   ROW     6   COL     9   RATE    -76.1458    
 BOUNDARY     85   LAYER   1   ROW     6   COL    10   RATE    -76.1458    
 BOUNDARY     86   LAYER   1   ROW     6   COL    11   RATE    -76.1458    
 BOUNDARY     87   LAYER   1   ROW     6   COL    12   RATE    -20.2394    
 BOUNDARY     88   LAYER   1   ROW     6   COL    13   RATE    -3.14765    
 BOUNDARY     89   LAYER   1   ROW     6   COL    14   RATE     0.00000    
 BOUNDARY     90   LAYER   1   ROW     6   COL    15   RATE     0.00000    
 BOUNDARY     91   LAYER   1   ROW     7   COL     1   RATE     0.00000    
 BOUNDARY     92   LAYER   1   ROW     7   COL     2   RATE   -0.719212    
 BOUNDARY     93   LAYER   1   ROW     7   COL     3   RATE    -30.5351    
 BOUNDARY     94   LAYER   1   ROW     7   COL     4   RATE    -76.1458    
 BOUNDARY     95   LAYER   1   ROW     7   COL     5   RATE    -76.1458    
 BOUNDARY     96   LAYER   1   ROW     7   COL     6   RATE    -76.1458    
 BOUNDARY     97   LAYER   1   ROW     7   COL     7   RATE    -76.1458    
 BOUNDARY     98   LAYER   1   ROW     7   COL     8   RATE    -76.1458    
 BOUNDARY     99   LAYER   1   ROW     7   COL     9   RATE    -76.1458    
 BOUNDARY    100   LAYER   1   ROW     7   COL    10   RATE    -76.1458    
 BOUNDARY    101   LAYER   1   ROW     7   COL    11   RATE    -76.1458    
 BOUNDARY    102   LAYER   1   ROW     7   COL    12   RATE    -20.1133    
 BOUNDARY    103   LAYER   1   ROW     7   COL    13   RATE    -2.58501    
 BOUNDARY    104   LAYER   1   ROW     7   COL    14   RATE     0.00000    
 BOUNDARY    105   LAYER   1   ROW     7   COL    15   RATE     0.00000    
 BOUNDARY    106   LAYER   1   ROW     8   COL     1   RATE     0.00000    
 BOUNDARY    107   LAYER   1   ROW     8   COL     2   RATE    -8.37950    
 BOUNDARY    108   LAYER   1   ROW     8   COL     3   RATE    -76.1458    
 BOUNDARY    109   LAYER   1   ROW     8   COL     4   RATE    -76.1458    
 BOUNDARY    110   LAYER   1   ROW     8   COL     5   RATE    -76.1458    
 BOUNDARY    111   LAYER   1   ROW     8   COL     6   RATE    -76.1458    
 BOUNDARY    112   LAYER   1   ROW     8   COL     7   RATE    -76.1458    
 BOUNDARY    113   LAYER   1   ROW     8   COL     8   RATE    -76.1458    
 BOUNDARY    114   LAYER   1   ROW     8   COL     9   RATE    -76.1458    
 BOUNDARY    115   LAYER   1   ROW     8   COL    10   RATE    -76.1458    
 BOUNDARY    116   LAYER   1   ROW     8   COL    11   RATE    -76.1458    
 BOUNDARY    117   LAYER   1   ROW     8   COL    12   RATE    -20.4066    
 BOUNDARY    118   LAYER   1   ROW     8   COL    13   RATE    -2.58407    
 BOUNDARY    119   LAYER   1   ROW     8   COL    14   RATE     0.00000    
 BOUNDARY    120   LAYER   1   ROW     8   COL    15   RATE     0.00000    
 BOUNDARY    121   LAYER   1   ROW     9   COL     1   RATE    -14.1515    
 BOUNDARY    122   LAYER   1   ROW     9   COL     2   RATE    -45.0884    
 BOUNDARY    123   LAYER   1   ROW     9   COL     3   RATE    -76.1458    
 BOUNDARY    124   LAYER   1   ROW     9   COL     4   RATE    -76.1458    
 BOUNDARY    125   LAYER   1   ROW     9   COL     5   RATE    -76.1458    
 BOUNDARY    126   LAYER   1   ROW     9   COL     6   RATE    -76.1458    
 BOUNDARY    127   LAYER   1   ROW     9   COL     7   RATE    -76.1458    
 BOUNDARY    128   LAYER   1   ROW     9   COL     8   RATE    -76.1458    
 BOUNDARY    129   LAYER   1   ROW     9   COL     9   RATE    -76.1458    
 BOUNDARY    130   LAYER   1   ROW     9   COL    10   RATE    -76.1458    
 BOUNDARY    131   LAYER   1   ROW     9   COL    11   RATE    -76.1458    
 BOUNDARY    132   LAYER   1   ROW     9   COL    12   RATE    -21.2397    
 BOUNDARY    133   LAYER   1   ROW     9   COL    13   RATE    -3.20150    
 BOUNDARY    134   LAYER   1   ROW     9   COL    14   RATE     0.00000    
 BOUNDARY    135   LAYER   1   ROW     9   COL    15   RATE     0.00000    
 BOUNDARY    136   LAYER   1   ROW    10   COL     1   RATE    -51.3525    
 BOUNDARY    137   LAYER   1   ROW    10   COL     2   RATE    -76.1458    
 BOUNDARY    138   LAYER   1   ROW    10   COL     3   RATE    -76.1458    
 BOUNDARY    139   LAYER   1   ROW    10   COL     4   RATE    -76.1458    
 BOUNDARY    140   LAYER   1   ROW    10   COL     5   RATE    -76.1458    
 BOUNDARY    141   LAYER   1   ROW    10   COL     6   RATE    -76.1458    
 BOUNDARY    142   LAYER   1   ROW    10   COL     7   RATE    -76.1458    
 BOUNDARY    143   LAYER   1   ROW    10   COL     8   RATE    -76.1458    
 BOUNDARY    144   LAYER   1   ROW    10   COL     9   RATE    -76.1458    
 BOUNDARY    145   LAYER   1   ROW    10   COL    10   RATE    -76.1458    
 BOUNDARY    146   LAYER   1   ROW    10   COL    11   RATE    -76.1458    
 BOUNDARY    147   LAYER   1   ROW    10   COL    12   RATE    -21.8443    
 BOUNDARY    148   LAYER   1   ROW    10   COL    13   RATE    -3.60107    
 BOUNDARY    149   LAYER   1   ROW    10   COL    14   RATE     0.00000    
 BOUNDARY    150   LAYER   1   ROW    10   COL    15   RATE     0.00000    

 HEAD WILL BE SAVED ON UNIT 1017 AT END OF TIME STEP    5, STRESS PERIOD    2
WEL   no.    1 value from time series:   0.0000     for time:  6.000     to  7.000    
WEL   no.    2 value from time series:   0.0000     for time:  6.000     to  7.000    
RIV   no.    1 value from time series:   102.83     for time:  6.000     to  7.000    
RIV   no.    2 value from time series:   102.83     for time:  6.000     to  7.000    
RIV   no.    3 value from time series:   112.98     for time:  6.000     to  7.000    
RIV   no.    4 value from time series:   112.98     for time:  6.000     to  7.000    
RIV   no.    5 value from time series:   115.62     for time:  6.000     to  7.000    
RIV   no.    6 value from time series:   115.62     for time:  6.000     to  7.000    
RIV   no.    7 value from time series:   105.02     for time:  6.000     to  7.000    
RIV   no.    8 value from time series:   105.02     for time:  6.000     to  7.000    
RIV   no.    9 value from time series:   115.10     for time:  6.000     to  7.000    
RIV   no.   10 value from time series:   115.10     for time:  6.000     to  7.000    
WEL   no.    1 value from time series:   0.0000     for time:  6.000     to  7.000    
WEL   no.    2 value from time series:   0.0000     for time:  6.000     to  7.000    
RIV   no.    1 value from time series:   102.83     for time:  6.000     to  7.000    
RIV   no.    2 value from time series:   102.83     for time:  6.000     to  7.000    
RIV   no.    3 value from time series:   112.98     for time:  6.000     to  7.000    
RIV   no.    4 value from time series:   112.98     for time:  6.000     to  7.000    
RIV   no.    5 value from time series:   115.62     for time:  6.000     to  7.000    
RIV   no.    6 value from time series:   115.62     for time:  6.000     to  7.000    
RIV   no.    7 value from time series:   105.02     for time:  6.000     to  7.000    
RIV   no.    8 value from time series:   105.02     for time:  6.000     to  7.000    
RIV   no.    9 value from time series:   115.10     for time:  6.000     to  7.000    
RIV   no.   10 value from time series:   115.10     for time:  6.000     to  7.000    

 OUTPUT CONTROL FOR STRESS PERIOD    2   TIME STEP    6
    SAVE BUDGET
    SAVE HEAD
    SAVE HEAD FOR ALL LAYERS
 UBDSV1 SAVING          STORAGE ON UNIT   1016 AT TIME STEP      6, STRESS PERIOD      2
 UBDSV1 SAVING FLOW RIGHT FACE  ON UNIT   1016 AT TIME STEP      6, STRESS PERIOD      2
 UBDSV1 SAVING FLOW FRONT FACE  ON UNIT   1016 AT TIME STEP      6, STRESS PERIOD      2
 UBDSV1 SAVING FLOW LOWER FACE  ON UNIT   1016 AT TIME STEP      6, STRESS PERIOD      2
 UBDSV4 SAVING WELLS NEAR RIVER ON UNIT   1016 AT TIME STEP      6, STRESS PERIOD      2

 WELLS NEAR RIVER   PERIOD  2   STEP  6
 BOUNDARY      1   LAYER   2   ROW     3   COL     4   RATE     0.00000      WELL_1
 BOUNDARY      2   LAYER   2   ROW     8   COL     4   RATE     0.00000      WELL_2
 BOUNDARY      3   LAYER   2   ROW     4   COL     6   RATE   -10.00000    
 BOUNDARY      4   LAYER   2   ROW     5   COL     8   RATE    -20.0000    
 BOUNDARY      5   LAYER   2   ROW     2   COL     9   RATE    -40.0000    
 UBDSV4 SAVING RIVER            ON UNIT   1016 AT TIME STEP      6, STRESS PERIOD      2

 RIVER              PERIOD  2   STEP  6
 BOUNDARY      1   LAYER   1   ROW     1   COL    15   RATE    -3317.10    
 BOUNDARY      2   LAYER   1   ROW     2   COL    15   RATE    -4411.30      RIV2
 BOUNDARY      3   LAYER   1   ROW     3   COL    15   RATE    -710.756      RIV3
 BOUNDARY      4   LAYER   1   ROW     4   COL    15   RATE    -2190.92    
 BOUNDARY      5   LAYER   1   ROW     5   COL    15   RATE    -1925.79    
 BOUNDARY      6   LAYER   1   ROW     6   COL    15   RATE    -1303.84    
 BOUNDARY      7   LAYER   1   ROW     7   COL    15   RATE    -5371.93      RIVX
 BOUNDARY      8   LAYER   1   ROW     8   COL    15   RATE    -5146.18      RIVX
 BOUNDARY      9   LAYER   1   ROW     9   COL    15   RATE    -414.874      RIVX
 BOUNDARY     10   LAYER   1   ROW    10   COL    15   RATE    -1263.41    

 GHB LAKES          PERIOD  2   STEP  6
 BOUNDARY      1   LAYER   1   ROW     3   COL     1   RATE    -14419.1    
 BOUNDARY      2   LAYER   1   ROW     7   COL     1   RATE    -1820.82      GHB2_UPPER
 BOUNDARY      3   LAYER   1   ROW     7   COL     1   RATE    -13202.0      GHB2_LOWER
 UBDSV4 SAVING RECHARGE         ON UNIT   1016 AT TIME STEP      6, STRESS PERIOD      2

 RECHARGE           PERIOD  2   STEP  6
 BOUNDARY      1   LAYER   1   ROW     1   COL     1   RATE     513.542    
 BOUNDARY      2   LAYER   1   ROW     1   COL     2   RATE     513.542    
 BOUNDARY      3   LAYER   1   ROW     1   COL     3   RATE     513.542    
 BOUNDARY      4   LAYER   1   ROW     1   COL     4   RATE     513.542    
 BOUNDARY      5   LAYER   1   ROW     1   COL     5   RATE     513.542    
 BOUNDARY      6   LAYER   1   ROW     1   COL     6   RATE     513.542    
 BOUNDARY      7   LAYER   1   ROW     1   COL     7   RATE     513.542    
 BOUNDARY      8   LAYER   1   ROW     1   COL     8   RATE     513.542    
 BOUNDARY      9   LAYER   1   ROW     1   COL     9   RATE     513.542    
 BOUNDARY     10   LAYER   1   ROW     1   COL    10   RATE     513.542    
 BOUNDARY     11   LAYER   1   ROW     1   COL    11   RATE     513.542    
 BOUNDARY     12   LAYER   1   ROW     1   COL    12   RATE     513.542    
 BOUNDARY     13   LAYER   1   ROW     1   COL    13   RATE     513.542    
 BOUNDARY     14   LAYER   1   ROW     1   COL    14   RATE     513.542    
 BOUNDARY     15   LAYER   1   ROW     1   COL    15   RATE     513.542    
 BOUNDARY     16   LAYER   1   ROW     2   COL     1   RATE     513.542    
 BOUNDARY     17   LAYER   1   ROW     2   COL     2   RATE     513.542    
 BOUNDARY     18   LAYER   1   ROW     2   COL     3   RATE     513.542    
 BOUNDARY     19   LAYER   1   ROW     2   COL     4   RATE     513.542    
 BOUNDARY     20   LAYER   1   ROW     2   COL     5   RATE     513.542    
 BOUNDARY     21   LAYER   1   ROW     2   COL     6   RATE     513.542    
 BOUNDARY     22   LAYER   1   ROW     2   COL     7   RATE     513.542    
 BOUNDARY     23   LAYER   1   ROW     2   COL     8   RATE     513.542    
 BOUNDARY     24   LAYER   1   ROW     2   COL     9   RATE     513.542    
 BOUNDARY     25   LAYER   1   ROW     2   COL    10   RATE     513.542    
 BOUNDARY     26   LAYER   1   ROW     2   COL    11   RATE     513.542    
 BOUNDARY     27   LAYER   1   ROW     2   COL    12   RATE     513.542    
 BOUNDARY     28   LAYER   1   ROW     2   COL    13   RATE     513.542    
 BOUNDARY     29   LAYER   1   ROW     2   COL    14   RATE     513.542    
 BOUNDARY     30   LAYER   1   ROW     2   COL    15   RATE     513.542    
 BOUNDARY     31   LAYER   1   ROW     3   COL     1   RATE     513.542    
 BOUNDARY     32   LAYER   1   ROW     3   COL     2   RATE     513.542    
 BOUNDARY     33   LAYER   1   ROW     3   COL     3   RATE     513.542    
 BOUNDARY     34   LAYER   1   ROW     3   COL     4   RATE     513.542    
 BOUNDARY     35   LAYER   1   ROW     3   COL     5   RATE     513.542    
 BOUNDARY     36   LAYER   1   ROW     3   COL     6   RATE     513.542    
 BOUNDARY     37   LAYER   1   ROW     3   COL     7   RATE     513.542    
 BOUNDARY     38   LAYER   1   ROW     3   COL     8   RATE     513.542    
 BOUNDARY     39   LAYER   1   ROW     3   COL     9   RATE     513.542    
 BOUNDARY     40   LAYER   1   ROW     3   COL    10   RATE     513.542    
 BOUNDARY     41   LAYER   1   ROW     3   COL    11   RATE     513.542    
 BOUNDARY     42   LAYER   1   ROW     3   COL    12   RATE     513.542    
 BOUNDARY     43   LAYER   1   ROW     3   COL    13   RATE     513.542    
 BOUNDARY     44   LAYER   1   ROW     3   COL    14   RATE     513.542    
 BOUNDARY     45   LAYER   1   ROW     3   COL    15   RATE     513.542    
 BOUNDARY     46   LAYER   1   ROW     4   COL     1   RATE     513.542    
 BOUNDARY     47   LAYER   1   ROW     4   COL     2   RATE     513.542    
 BOUNDARY     48   LAYER   1   ROW     4   COL     3   RATE     513.542    
 BOUNDARY     49   LAYER   1   ROW     4   COL     4   RATE     513.542    
 BOUNDARY     50   LAYER   1   ROW     4   COL     5   RATE     513.542    
 BOUNDARY     51   LAYER   1   ROW     4   COL     6   RATE     513.542    
 BOUNDARY     52   LAYER   1   ROW     4   COL     7   RATE     513.542    
 BOUNDARY     53   LAYER   1   ROW     4   COL     8   RATE     513.542    
 BOUNDARY     54   LAYER   1   ROW     4   COL     9   RATE     513.542    
 BOUNDARY     55   LAYER   1   ROW     4   COL    10   RATE     513.542    
 BOUNDARY     56   LAYER   1   ROW     4   COL    11   RATE     513.542    
 BOUNDARY     57   LAYER   1   ROW     4   COL    12   RATE     513.542    
 BOUNDARY     58   LAYER   1   ROW     4   COL    13   RATE     513.542    
 BOUNDARY     59   LAYER   1   ROW     4   COL    14   RATE     513.542    
 BOUNDARY     60   LAYER   1   ROW     4   COL    15   RATE     513.542    
 BOUNDARY     61   LAYER   1   ROW     5   COL     1   RATE     513.542    
 BOUNDARY     62   LAYER   1   ROW     5   COL     2   RATE     513.542    
 BOUNDARY     63   LAYER   1   ROW     5   COL     3   RATE     513.542    
 BOUNDARY     64   LAYER   1   ROW     5   COL     4   RATE     513.542    
 BOUNDARY     65   LAYER   1   ROW     5   COL     5   RATE     513.542    
 BOUNDARY     66   LAYER   1   ROW     5   COL     6   RATE     513.542    
 BOUNDARY     67   LAYER   1   ROW     5   COL     7   RATE     513.542    
 BOUNDARY     68   LAYER   1   ROW     5   COL     8   RATE     513.542    
 BOUNDARY     69   LAYER   1   ROW     5   COL     9   RATE     513.542    
 BOUNDARY     70   LAYER   1   ROW     5   COL    10   RATE     513.542    
 BOUNDARY     71   LAYER   1   ROW     5   COL    11   RATE     513.542    
 BOUNDARY     72   LAYER   1   ROW     5   COL    12   RATE     513.542    
 BOUNDARY     73   LAYER   1   ROW     5   COL    13   RATE     513.542    
 BOUNDARY     74   LAYER   1   ROW     5   COL    14   RATE     513.542    
 BOUNDARY     75   LAYER   1   ROW     5   COL    15   RATE     513.542    
 BOUNDARY     76   LAYER   1   ROW     6   COL     1   RATE     513.542    
 BOUNDARY     77   LAYER   1   ROW     6   COL     2   RATE     513.542    
 BOUNDARY     78   LAYER   1   ROW     6   COL     3   RATE     513.542    
 BOUNDARY     79   LAYER   1   ROW     6   COL     4   RATE     513.542    
 BOUNDARY     80   LAYER   1   ROW     6   COL     5   RATE     513.542    
 BOUNDARY     81   LAYER   1   ROW     6   COL     6   RATE     513.542    
 BOUNDARY     82   LAYER   1   ROW     6   COL     7   RATE     513.542    
 BOUNDARY     83   LAYER   1   ROW     6   COL     8   RATE     513.542    
 BOUNDARY     84   LAYER   1   ROW     6   COL     9   RATE     513.542    
 BOUNDARY     85   LAYER   1   ROW     6   COL    10   RATE     513.542    
 BOUNDARY     86   LAYER   1   ROW     6   COL    11   RATE     513.542    
 BOUNDARY     87   LAYER   1   ROW     6   COL    12   RATE     513.542    
 BOUNDARY     88   LAYER   1   ROW     6   COL    13   RATE     513.542    
 BOUNDARY     89   LAYER   1   ROW     6   COL    14   RATE     513.542    
 BOUNDARY     90   LAYER   1   ROW     6   COL    15   RATE     513.542    
 BOUNDARY     91   LAYER   1   ROW     7   COL     1   RATE     513.542    
 BOUNDARY     92   LAYER   1   ROW     7   COL     2   RATE     513.542    
 BOUNDARY     93   LAYER   1   ROW     7   COL     3   RATE     513.542    
 BOUNDARY     94   LAYER   1   ROW     7   COL     4   RATE     513.542    
 BOUNDARY     95   LAYER   1   ROW     7   COL     5   RATE     513.542    
 BOUNDARY     96   LAYER   1   ROW     7   COL     6   RATE     513.542    
 BOUNDARY     97   LAYER   1   ROW     7   COL     7   RATE     513.542    
 BOUNDARY     98   LAYER   1   ROW     7   COL     8   RATE     513.542    
 BOUNDARY     99   LAYER   1   ROW     7   COL     9   RATE     513.542    
 BOUNDARY    100   LAYER   1   ROW     7   COL    10   RATE     513.542    
 BOUNDARY    101   LAYER   1   ROW     7   COL    11   RATE     513.542    
 BOUNDARY    102   LAYER   1   ROW     7   COL    12   RATE     513.542    
 BOUNDARY    103   LAYER   1   ROW     7   COL    13   RATE     513.542    
 BOUNDARY    104   LAYER   1   ROW     7   COL    14   RATE     513.542    
 BOUNDARY    105   LAYER   1   ROW     7   COL    15   RATE     513.542    
 BOUNDARY    106   LAYER   1   ROW     8   COL     1   RATE     513.542    
 BOUNDARY    107   LAYER   1   ROW     8   COL     2   RATE     513.542    
 BOUNDARY    108   LAYER   1   ROW     8   COL     3   RATE     513.542    
 BOUNDARY    109   LAYER   1   ROW     8   COL     4   RATE     513.542    
 BOUNDARY    110   LAYER   1   ROW     8   COL     5   RATE     513.542    
 BOUNDARY    111   LAYER   1   ROW     8   COL     6   RATE     513.542    
 BOUNDARY    112   LAYER   1   ROW     8   COL     7   RATE     513.542    
 BOUNDARY    113   LAYER   1   ROW     8   COL     8   RATE     513.542    
 BOUNDARY    114   LAYER   1   ROW     8   COL     9   RATE     513.542    
 BOUNDARY    115   LAYER   1   ROW     8   COL    10   RATE     513.542    
 BOUNDARY    116   LAYER   1   ROW     8   COL    11   RATE     513.542    
 BOUNDARY    117   LAYER   1   ROW     8   COL    12   RATE     513.542    
 BOUNDARY    118   LAYER   1   ROW     8   COL    13   RATE     513.542    
 BOUNDARY    119   LAYER   1   ROW     8   COL    14   RATE     513.542    
 BOUNDARY    120   LAYER   1   ROW     8   COL    15   RATE     513.542    
 BOUNDARY    121   LAYER   1   ROW     9   COL     1   RATE     513.542    
 BOUNDARY    122   LAYER   1   ROW     9   COL     2   RATE     513.542    
 BOUNDARY    123   LAYER   1   ROW     9   COL     3   RATE     513.542    
 BOUNDARY    124   LAYER   1   ROW     9   COL     4   RATE     513.542    
 BOUNDARY    125   LAYER   1   ROW     9   COL     5   RATE     513.542    
 BOUNDARY    126   LAYER   1   ROW     9   COL     6   RATE     513.542    
 BOUNDARY    127   LAYER   1   ROW     9   COL     7   RATE     513.542    
 BOUNDARY    128   LAYER   1   ROW     9   COL     8   RATE     513.542    
 BOUNDARY    129   LAYER   1   ROW     9   COL     9   RATE     513.542    
 BOUNDARY    130   LAYER   1   ROW     9   COL    10   RATE     513.542    
 BOUNDARY    131   LAYER   1   ROW     9   COL    11   RATE     513.542    
 BOUNDARY    132   LAYER   1   ROW     9   COL    12   RATE     513.542    
 BOUNDARY    133   LAYER   1   ROW     9   COL    13   RATE     513.542    
 BOUNDARY    134   LAYER   1   ROW     9   COL    14   RATE     513.542    
 BOUNDARY    135   LAYER   1   ROW     9   COL    15   RATE     513.542    
 BOUNDARY    136   LAYER   1   ROW    10   COL     1   RATE     513.542    
 BOUNDARY    137   LAYER   1   ROW    10   COL     2   RATE     513.542    
 BOUNDARY    138   LAYER   1   ROW    10   COL     3   RATE     513.542    
 BOUNDARY    139   LAYER   1   ROW    10   COL     4   RATE     513.542    
 BOUNDARY    140   LAYER   1   ROW    10   COL     5   RATE     513.542    
 BOUNDARY    141   LAYER   1   ROW    10   COL     6   RATE     513.542    
 BOUNDARY    142   LAYER   1   ROW    10   COL     7   RATE     513.542    
 BOUNDARY    143   LAYER   1   ROW    10   COL     8   RATE     513.542    
 BOUNDARY    144   LAYER   1   ROW    10   COL     9   RATE     513.542    
 BOUNDARY    145   LAYER   1   ROW    10   COL    10   RATE     513.542    
 BOUNDARY    146   LAYER   1   ROW    10   COL    11   RATE     513.542    
 BOUNDARY    147   LAYER   1   ROW    10   COL    12   RATE     513.542    
 BOUNDARY    148   LAYER   1   ROW    10   COL    13   RATE     513.542    
 BOUNDARY    149   LAYER   1   ROW    10   COL    14   RATE     513.542    
 BOUNDARY    150   LAYER   1   ROW    10   COL    15   RATE     513.542    
 UBDSV4 SAVING ET SEGS          ON UNIT   1016 AT TIME STEP      6, STRESS PERIOD      2

 ET SEGS            PERIOD  2   STEP  6
 BOUNDARY      1   LAYER   1   ROW     1   COL     1   RATE    -1.57942    
 BOUNDARY      2   LAYER   1   ROW     1   COL     2   RATE    -6.81237    
 BOUNDARY      3   LAYER   1   ROW     1   COL     3   RATE    -36.4963    
 BOUNDARY      4   LAYER   1   ROW     1   COL     4   RATE    -76.3542    
 BOUNDARY      5   LAYER   1   ROW     1   COL     5   RATE    -76.3542    
 BOUNDARY      6   LAYER   1   ROW     1   COL     6   RATE    -76.3542    
 BOUNDARY      7   LAYER   1   ROW     1   COL     7   RATE    -76.3542    
 BOUNDARY      8   LAYER   1   ROW     1   COL     8   RATE    -76.3542    
 BOUNDARY      9   LAYER   1   ROW     1   COL     9   RATE    -76.3542    
 BOUNDARY     10   LAYER   1   ROW     1   COL    10   RATE    -76.3542    
 BOUNDARY     11   LAYER   1   ROW     1   COL    11   RATE    -76.3542    
 BOUNDARY     12   LAYER   1   ROW     1   COL    12   RATE    -12.6095    
 BOUNDARY     13   LAYER   1   ROW     1   COL    13   RATE     0.00000    
 BOUNDARY     14   LAYER   1   ROW     1   COL    14   RATE     0.00000    
 BOUNDARY     15   LAYER   1   ROW     1   COL    15   RATE     0.00000    
 BOUNDARY     16   LAYER   1   ROW     2   COL     1   RATE     0.00000    
 BOUNDARY     17   LAYER   1   ROW     2   COL     2   RATE    -3.36444    
 BOUNDARY     18   LAYER   1   ROW     2   COL     3   RATE    -21.3888    
 BOUNDARY     19   LAYER   1   ROW     2   COL     4   RATE    -76.3542    
 BOUNDARY     20   LAYER   1   ROW     2   COL     5   RATE    -76.3542    
 BOUNDARY     21   LAYER   1   ROW     2   COL     6   RATE    -76.3542    
 BOUNDARY     22   LAYER   1   ROW     2   COL     7   RATE    -76.3542    
 BOUNDARY     23   LAYER   1   ROW     2   COL     8   RATE    -76.3542    
 BOUNDARY     24   LAYER   1   ROW     2   COL     9   RATE    -76.3542    
 BOUNDARY     25   LAYER   1   ROW     2   COL    10   RATE    -76.3542    
 BOUNDARY     26   LAYER   1   ROW     2   COL    11   RATE    -76.3542    
 BOUNDARY     27   LAYER   1   ROW     2   COL    12   RATE    -13.9383    
 BOUNDARY     28   LAYER   1   ROW     2   COL    13   RATE   -2.392072E-04
 BOUNDARY     29   LAYER   1   ROW     2   COL    14   RATE     0.00000    
 BOUNDARY     30   LAYER   1   ROW     2   COL    15   RATE     0.00000    
 BOUNDARY     31   LAYER   1   ROW     3   COL     1   RATE     0.00000    
 BOUNDARY     32   LAYER   1   ROW     3   COL     2   RATE     0.00000    
 BOUNDARY     33   LAYER   1   ROW     3   COL     3   RATE    -16.8144    
 BOUNDARY     34   LAYER   1   ROW     3   COL     4   RATE    -76.3542    
 BOUNDARY     35   LAYER   1   ROW     3   COL     5   RATE    -76.3542    
 BOUNDARY     36   LAYER   1   ROW     3   COL     6   RATE    -76.3542    
 BOUNDARY     37   LAYER   1   ROW     3   COL     7   RATE    -76.3542    
 BOUNDARY     38   LAYER   1   ROW     3   COL     8   RATE    -76.3542    
 BOUNDARY     39   LAYER   1   ROW     3   COL     9   RATE    -76.3542    
 BOUNDARY     40   LAYER   1   ROW     3   COL    10   RATE    -76.3542    
 BOUNDARY     41   LAYER   1   ROW     3   COL    11   RATE    -76.3542    
 BOUNDARY     42   LAYER   1   ROW     3   COL    12   RATE    -16.1796    
 BOUNDARY     43   LAYER   1   ROW     3   COL    13   RATE    -1.36532    
 BOUNDARY     44   LAYER   1   ROW     3   COL    14   RATE     0.00000    
 BOUNDARY     45   LAYER   1   ROW     3   COL    15   RATE     0.00000    
 BOUNDARY     46   LAYER   1   ROW     4   COL     1   RATE     0.00000    
 BOUNDARY     47   LAYER   1   ROW     4   COL     2   RATE    -2.20836    
 BOUNDARY     48   LAYER   1   ROW     4   COL     3   RATE    -19.7664    
 BOUNDARY     49   LAYER   1   ROW     4   COL     4   RATE    -76.3542    
 BOUNDARY     50   LAYER   1   ROW     4   COL     5   RATE    -76.3542    
 BOUNDARY     51   LAYER   1   ROW     4   COL     6   RATE    -76.3542    
 BOUNDARY     52   LAYER   1   ROW     4   COL     7   RATE    -76.3542    
 BOUNDARY     53   LAYER   1   ROW     4   COL     8   RATE    -76.3542    
 BOUNDARY     54   LAYER   1   ROW     4   COL     9   RATE    -76.3542    
 BOUNDARY     55   LAYER   1   ROW     4   COL    10   RATE    -76.3542    
 BOUNDARY     56   LAYER   1   ROW     4   COL    11   RATE    -76.3542    
 BOUNDARY     57   LAYER   1   ROW     4   COL    12   RATE    -18.3192    
 BOUNDARY     58   LAYER   1   ROW     4   COL    13   RATE    -2.48505    
 BOUNDARY     59   LAYER   1   ROW     4   COL    14   RATE     0.00000    
 BOUNDARY     60   LAYER   1   ROW     4   COL    15   RATE     0.00000    
 BOUNDARY     61   LAYER   1   ROW     5   COL     1   RATE     0.00000    
 BOUNDARY     62   LAYER   1   ROW     5   COL     2   RATE    -4.47882    
 BOUNDARY     63   LAYER   1   ROW     5   COL     3   RATE    -22.8121    
 BOUNDARY     64   LAYER   1   ROW     5   COL     4   RATE    -76.3542    
 BOUNDARY     65   LAYER   1   ROW     5   COL     5   RATE    -76.3542    
 BOUNDARY     66   LAYER   1   ROW     5   COL     6   RATE    -76.3542    
 BOUNDARY     67   LAYER   1   ROW     5   COL     7   RATE    -76.3542    
 BOUNDARY     68   LAYER   1   ROW     5   COL     8   RATE    -76.3542    
 BOUNDARY     69   LAYER   1   ROW     5   COL     9   RATE    -76.3542    
 BOUNDARY     70   LAYER   1   ROW     5   COL    10   RATE    -76.3542    
 BOUNDARY     71   LAYER   1   ROW     5   COL    11   RATE    -76.3542    
 BOUNDARY     72   LAYER   1   ROW     5   COL    12   RATE    -19.8029    
 BOUNDARY     73   LAYER   1   ROW     5   COL    13   RATE    -3.18783    
 BOUNDARY     74   LAYER   1   ROW     5   COL    14   RATE     0.00000    
 BOUNDARY     75   LAYER   1   ROW     5   COL    15   RATE     0.00000    
 BOUNDARY     76   LAYER   1   ROW     6   COL     1   RATE     0.00000    
 BOUNDARY     77   LAYER   1   ROW     6   COL     2   RATE    -3.38839    
 BOUNDARY     78   LAYER   1   ROW     6   COL     3   RATE    -25.3724    
 BOUNDARY     79   LAYER   1   ROW     6   COL     4   RATE    -76.3542    
 BOUNDARY     80   LAYER   1   ROW     6   COL     5   RATE    -76.3542    
 BOUNDARY     81   LAYER   1   ROW     6   COL     6   RATE    -76.3542    
 BOUNDARY     82   LAYER   1   ROW     6   COL     7   RATE    -76.3542    
 BOUNDARY     83   LAYER   1   ROW     6   COL     8   RATE    -76.3542    
 BOUNDARY     84   LAYER   1   ROW     6   COL     9   RATE    -76.3542    
 BOUNDARY     85   LAYER   1   ROW     6   COL    10   RATE    -76.3542    
 BOUNDARY     86   LAYER   1   ROW     6   COL    11   RATE    -76.3542    
 BOUNDARY     87   LAYER   1   ROW     6   COL    12   RATE    -20.2988    
 BOUNDARY     88   LAYER   1   ROW     6   COL    13   RATE    -3.15721    
 BOUNDARY     89   LAYER   1   ROW     6   COL    14   RATE     0.00000    
 BOUNDARY     90   LAYER   1   ROW     6   COL    15   RATE     0.00000    
 BOUNDARY     91   LAYER   1   ROW     7   COL     1   RATE     0.00000    
 BOUNDARY     92   LAYER   1   ROW     7   COL     2   RATE   -0.721900    
 BOUNDARY     93   LAYER   1   ROW     7   COL     3   RATE    -30.6432    
 BOUNDARY     94   LAYER   1   ROW     7   COL     4   RATE    -76.3542    
 BOUNDARY     95   LAYER   1   ROW     7   COL     5   RATE    -76.3542    
 BOUNDARY     96   LAYER   1   ROW     7   COL     6   RATE    -76.3542    
 BOUNDARY     97   LAYER   1   ROW     7   COL     7   RATE    -76.3542    
 BOUNDARY     98   LAYER   1   ROW     7   COL     8   RATE    -76.3542    
 BOUNDARY     99   LAYER   1   ROW     7   COL     9   RATE    -76.3542    
 BOUNDARY    100   LAYER   1   ROW     7   COL    10   RATE    -76.3542    
 BOUNDARY    101   LAYER   1   ROW     7   COL    11   RATE    -76.3542    
 BOUNDARY    102   LAYER   1   ROW     7   COL    12   RATE    -20.1724    
 BOUNDARY    103   LAYER   1   ROW     7   COL    13   RATE    -2.59310    
 BOUNDARY    104   LAYER   1   ROW     7   COL    14   RATE     0.00000    
 BOUNDARY    105   LAYER   1   ROW     7   COL    15   RATE     0.00000    
 BOUNDARY    106   LAYER   1   ROW     8   COL     1   RATE     0.00000    
 BOUNDARY    107   LAYER   1   ROW     8   COL     2   RATE    -8.40586    
 BOUNDARY    108   LAYER   1   ROW     8   COL     3   RATE    -76.3542    
 BOUNDARY    109   LAYER   1   ROW     8   COL     4   RATE    -76.3542    
 BOUNDARY    110   LAYER   1   ROW     8   COL     5   RATE    -76.3542    
 BOUNDARY    111   LAYER   1   ROW     8   COL     6   RATE    -76.3542    
 BOUNDARY    112   LAYER   1   ROW     8   COL     7   RATE    -76.3542    
 BOUNDARY    113   LAYER   1   ROW     8   COL     8   RATE    -76.3542    
 BOUNDARY    114   LAYER   1   ROW     8   COL     9   RATE    -76.3542    
 BOUNDARY    115   LAYER   1   ROW     8   COL    10   RATE    -76.3542    
 BOUNDARY    116   LAYER   1   ROW     8   COL    11   RATE    -76.3542    
 BOUNDARY    117   LAYER   1   ROW     8   COL    12   RATE    -20.4665    
 BOUNDARY    118   LAYER   1   ROW     8   COL    13   RATE    -2.59216    
 BOUNDARY    119   LAYER   1   ROW     8   COL    14   RATE     0.00000    
 BOUNDARY    120   LAYER   1   ROW     8   COL    15   RATE     0.00000    
 BOUNDARY    121   LAYER   1   ROW     9   COL     1   RATE    -14.1939    
 BOUNDARY    122   LAYER   1   ROW     9   COL     2   RATE    -45.2398    
 BOUNDARY    123   LAYER   1   ROW     9   COL     3   RATE    -76.3542    
 BOUNDARY    124   LAYER   1   ROW     9   COL     4   RATE    -76.3542    
 BOUNDARY    125   LAYER   1   ROW     9   COL     5   RATE    -76.3542    
 BOUNDARY    126   LAYER   1   ROW     9   COL     6   RATE    -76.3542    
 BOUNDARY    127   LAYER   1   ROW     9   COL     7   RATE    -76.3542    
 BOUNDARY    128   LAYER   1   ROW     9   COL     8   RATE    -76.3542    
 BOUNDARY    129   LAYER   1   ROW     9   COL     9   RATE    -76.3542    
 BOUNDARY    130   LAYER   1   ROW     9   COL    10   RATE    -76.3542    
 BOUNDARY    131   LAYER   1   ROW     9   COL    11   RATE    -76.3542    
 BOUNDARY    132   LAYER   1   ROW     9   COL    12   RATE    -21.3019    
 BOUNDARY    133   LAYER   1   ROW     9   COL    13   RATE    -3.21126    
 BOUNDARY    134   LAYER   1   ROW     9   COL    14   RATE     0.00000    
 BOUNDARY    135   LAYER   1   ROW     9   COL    15   RATE     0.00000    
 BOUNDARY    136   LAYER   1   ROW    10   COL     1   RATE    -51.5228    
 BOUNDARY    137   LAYER   1   ROW    10   COL     2   RATE    -76.3542    
 BOUNDARY    138   LAYER   1   ROW    10   COL     3   RATE    -76.3542    
 BOUNDARY    139   LAYER   1   ROW    10   COL     4   RATE    -76.3542    
 BOUNDARY    140   LAYER   1   ROW    10   COL     5   RATE    -76.3542    
 BOUNDARY    141   LAYER   1   ROW    10   COL     6   RATE    -76.3542    
 BOUNDARY    142   LAYER   1   ROW    10   COL     7   RATE    -76.3542    
 BOUNDARY    143   LAYER   1   ROW    10   COL     8   RATE    -76.3542    
 BOUNDARY    144   LAYER   1   ROW    10   COL     9   RATE    -76.3542    
 BOUNDARY    145   LAYER   1   ROW    10   COL    10   RATE    -76.3542    
 BOUNDARY    146   LAYER   1   ROW    10   COL    11   RATE    -76.3542    
 BOUNDARY    147   LAYER   1   ROW    10   COL    12   RATE    -21.9082    
 BOUNDARY    148   LAYER   1   ROW    10   COL    13   RATE    -3.61194    
 BOUNDARY    149   LAYER   1   ROW    10   COL    14   RATE     0.00000    
 BOUNDARY    150   LAYER   1   ROW    10   COL    15   RATE     0.00000    

 HEAD WILL BE SAVED ON UNIT 1017 AT END OF TIME STEP    6, STRESS PERIOD    2
WEL   no.    1 value from time series:   0.0000     for time:  7.000     to  8.000    
WEL   no.    2 value from time series:   0.0000     for time:  7.000     to  8.000    
RIV   no.    1 value from time series:   102.50     for time:  7.000     to  8.000    
RIV   no.    2 value from time series:   102.50     for time:  7.000     to  8.000    
RIV   no.    3 value from time series:   112.75     for time:  7.000     to  8.000    
RIV   no.    4 value from time series:   112.75     for time:  7.000     to  8.000    
RIV   no.    5 value from time series:   115.45     for time:  7.000     to  8.000    
RIV   no.    6 value from time series:   115.45     for time:  7.000     to  8.000    
RIV   no.    7 value from time series:   104.65     for time:  7.000     to  8.000    
RIV   no.    8 value from time series:   104.65     for time:  7.000     to  8.000    
RIV   no.    9 value from time series:   115.10     for time:  7.000     to  8.000    
RIV   no.   10 value from time series:   115.10     for time:  7.000     to  8.000    
WEL   no.    1 value from time series:   0.0000     for time:  7.000     to  8.000    
WEL   no.    2 value from time series:   0.0000     for time:  7.000     to  8.000    
RIV   no.    1 value from time series:   102.50     for time:  7.000     to  8.000    
RIV   no.    2 value from time series:   102.50     for time:  7.000     to  8.000    
RIV   no.    3 value from time series:   112.75     for time:  7.000     to  8.000    
RIV   no.    4 value from time series:   112.75     for time:  7.000     to  8.000    
RIV   no.    5 value from time series:   115.45     for time:  7.000     to  8.000    
RIV   no.    6 value from time series:   115.45     for time:  7.000     to  8.000    
RIV   no.    7 value from time series:   104.65     for time:  7.000     to  8.000    
RIV   no.    8 value from time series:   104.65     for time:  7.000     to  8.000    
RIV   no.    9 value from time series:   115.10     for time:  7.000     to  8.000    
RIV   no.   10 value from time series:   115.10     for time:  7.000     to  8.000    

 OUTPUT CONTROL FOR STRESS PERIOD    2   TIME STEP    7
    SAVE BUDGET
    SAVE HEAD
    SAVE HEAD FOR ALL LAYERS
 UBDSV1 SAVING          STORAGE ON UNIT   1016 AT TIME STEP      7, STRESS PERIOD      2
 UBDSV1 SAVING FLOW RIGHT FACE  ON UNIT   1016 AT TIME STEP      7, STRESS PERIOD      2
 UBDSV1 SAVING FLOW FRONT FACE  ON UNIT   1016 AT TIME STEP      7, STRESS PERIOD      2
 UBDSV1 SAVING FLOW LOWER FACE  ON UNIT   1016 AT TIME STEP      7, STRESS PERIOD      2
 UBDSV4 SAVING WELLS NEAR RIVER ON UNIT   1016 AT TIME STEP      7, STRESS PERIOD      2

 WELLS NEAR RIVER   PERIOD  2   STEP  7
 BOUNDARY      1   LAYER   2   ROW     3   COL     4   RATE     0.00000      WELL_1
 BOUNDARY      2   LAYER   2   ROW     8   COL     4   RATE     0.00000      WELL_2
 BOUNDARY      3   LAYER   2   ROW     4   COL     6   RATE   -10.00000    
 BOUNDARY      4   LAYER   2   ROW     5   COL     8   RATE    -20.0000    
 BOUNDARY      5   LAYER   2   ROW     2   COL     9   RATE    -40.0000    
 UBDSV4 SAVING RIVER            ON UNIT   1016 AT TIME STEP      7, STRESS PERIOD      2

 RIVER              PERIOD  2   STEP  7
 BOUNDARY      1   LAYER   1   ROW     1   COL    15   RATE    -3686.03    
 BOUNDARY      2   LAYER   1   ROW     2   COL    15   RATE    -4779.58      RIV2
 BOUNDARY      3   LAYER   1   ROW     3   COL    15   RATE    -989.578      RIV3
 BOUNDARY      4   LAYER   1   ROW     4   COL    15   RATE    -2467.30    
 BOUNDARY      5   LAYER   1   ROW     5   COL    15   RATE    -2093.39    
 BOUNDARY      6   LAYER   1   ROW     6   COL    15   RATE    -1471.37    
 BOUNDARY      7   LAYER   1   ROW     7   COL    15   RATE    -5746.49      RIVX
 BOUNDARY      8   LAYER   1   ROW     8   COL    15   RATE    -5523.36      RIVX
 BOUNDARY      9   LAYER   1   ROW     9   COL    15   RATE    -480.601      RIVX
 BOUNDARY     10   LAYER   1   ROW    10   COL    15   RATE    -1329.82    

 GHB LAKES          PERIOD  2   STEP  7
 BOUNDARY      1   LAYER   1   ROW     3   COL     1   RATE    -14419.2    
 BOUNDARY      2   LAYER   1   ROW     7   COL     1   RATE    -1819.91      GHB2_UPPER
 BOUNDARY      3   LAYER   1   ROW     7   COL     1   RATE    -13201.6      GHB2_LOWER
 UBDSV4 SAVING RECHARGE         ON UNIT   1016 AT TIME STEP      7, STRESS PERIOD      2

 RECHARGE           PERIOD  2   STEP  7
 BOUNDARY      1   LAYER   1   ROW     1   COL     1   RATE     515.625    
 BOUNDARY      2   LAYER   1   ROW     1   COL     2   RATE     515.625    
 BOUNDARY      3   LAYER   1   ROW     1   COL     3   RATE     515.625    
 BOUNDARY      4   LAYER   1   ROW     1   COL     4   RATE     515.625    
 BOUNDARY      5   LAYER   1   ROW     1   COL     5   RATE     515.625    
 BOUNDARY      6   LAYER   1   ROW     1   COL     6   RATE     515.625    
 BOUNDARY      7   LAYER   1   ROW     1   COL     7   RATE     515.625    
 BOUNDARY      8   LAYER   1   ROW     1   COL     8   RATE     515.625    
 BOUNDARY      9   LAYER   1   ROW     1   COL     9   RATE     515.625    
 BOUNDARY     10   LAYER   1   ROW     1   COL    10   RATE     515.625    
 BOUNDARY     11   LAYER   1   ROW     1   COL    11   RATE     515.625    
 BOUNDARY     12   LAYER   1   ROW     1   COL    12   RATE     515.625    
 BOUNDARY     13   LAYER   1   ROW     1   COL    13   RATE     515.625    
 BOUNDARY     14   LAYER   1   ROW     1   COL    14   RATE     515.625    
 BOUNDARY     15   LAYER   1   ROW     1   COL    15   RATE     515.625    
 BOUNDARY     16   LAYER   1   ROW     2   COL     1   RATE     515.625    
 BOUNDARY     17   LAYER   1   ROW     2   COL     2   RATE     515.625    
 BOUNDARY     18   LAYER   1   ROW     2   COL     3   RATE     515.625    
 BOUNDARY     19   LAYER   1   ROW     2   COL     4   RATE     515.625    
 BOUNDARY     20   LAYER   1   ROW     2   COL     5   RATE     515.625    
 BOUNDARY     21   LAYER   1   ROW     2   COL     6   RATE     515.625    
 BOUNDARY     22   LAYER   1   ROW     2   COL     7   RATE     515.625    
 BOUNDARY     23   LAYER   1   ROW     2   COL     8   RATE     515.625    
 BOUNDARY     24   LAYER   1   ROW     2   COL     9   RATE     515.625    
 BOUNDARY     25   LAYER   1   ROW     2   COL    10   RATE     515.625    
 BOUNDARY     26   LAYER   1   ROW     2   COL    11   RATE     515.625    
 BOUNDARY     27   LAYER   1   ROW     2   COL    12   RATE     515.625    
 BOUNDARY     28   LAYER   1   ROW     2   COL    13   RATE     515.625    
 BOUNDARY     29   LAYER   1   ROW     2   COL    14   RATE     515.625    
 BOUNDARY     30   LAYER   1   ROW     2   COL    15   RATE     515.625    
 BOUNDARY     31   LAYER   1   ROW     3   COL     1   RATE     515.625    
 BOUNDARY     32   LAYER   1   ROW     3   COL     2   RATE     515.625    
 BOUNDARY     33   LAYER   1   ROW     3   COL     3   RATE     515.625    
 BOUNDARY     34   LAYER   1   ROW     3   COL     4   RATE     515.625    
 BOUNDARY     35   LAYER   1   ROW     3   COL     5   RATE     515.625    
 BOUNDARY     36   LAYER   1   ROW     3   COL     6   RATE     515.625    
 BOUNDARY     37   LAYER   1   ROW     3   COL     7   RATE     515.625    
 BOUNDARY     38   LAYER   1   ROW     3   COL     8   RATE     515.625    
 BOUNDARY     39   LAYER   1   ROW     3   COL     9   RATE     515.625    
 BOUNDARY     40   LAYER   1   ROW     3   COL    10   RATE     515.625    
 BOUNDARY     41   LAYER   1   ROW     3   COL    11   RATE     515.625    
 BOUNDARY     42   LAYER   1   ROW     3   COL    12   RATE     515.625    
 BOUNDARY     43   LAYER   1   ROW     3   COL    13   RATE     515.625    
 BOUNDARY     44   LAYER   1   ROW     3   COL    14   RATE     515.625    
 BOUNDARY     45   LAYER   1   ROW     3   COL    15   RATE     515.625    
 BOUNDARY     46   LAYER   1   ROW     4   COL     1   RATE     515.625    
 BOUNDARY     47   LAYER   1   ROW     4   COL     2   RATE     515.625    
 BOUNDARY     48   LAYER   1   ROW     4   COL     3   RATE     515.625    
 BOUNDARY     49   LAYER   1   ROW     4   COL     4   RATE     515.625    
 BOUNDARY     50   LAYER   1   ROW     4   COL     5   RATE     515.625    
 BOUNDARY     51   LAYER   1   ROW     4   COL     6   RATE     515.625    
 BOUNDARY     52   LAYER   1   ROW     4   COL     7   RATE     515.625    
 BOUNDARY     53   LAYER   1   ROW     4   COL     8   RATE     515.625    
 BOUNDARY     54   LAYER   1   ROW     4   COL     9   RATE     515.625    
 BOUNDARY     55   LAYER   1   ROW     4   COL    10   RATE     515.625    
 BOUNDARY     56   LAYER   1   ROW     4   COL    11   RATE     515.625    
 BOUNDARY     57   LAYER   1   ROW     4   COL    12   RATE     515.625    
 BOUNDARY     58   LAYER   1   ROW     4   COL    13   RATE     515.625    
 BOUNDARY     59   LAYER   1   ROW     4   COL    14   RATE     515.625    
 BOUNDARY     60   LAYER   1   ROW     4   COL    15   RATE     515.625    
 BOUNDARY     61   LAYER   1   ROW     5   COL     1   RATE     515.625    
 BOUNDARY     62   LAYER   1   ROW     5   COL     2   RATE     515.625    
 BOUNDARY     63   LAYER   1   ROW     5   COL     3   RATE     515.625    
 BOUNDARY     64   LAYER   1   ROW     5   COL     4   RATE     515.625    
 BOUNDARY     65   LAYER   1   ROW     5   COL     5   RATE     515.625    
 BOUNDARY     66   LAYER   1   ROW     5   COL     6   RATE     515.625    
 BOUNDARY     67   LAYER   1   ROW     5   COL     7   RATE     515.625    
 BOUNDARY     68   LAYER   1   ROW     5   COL     8   RATE     515.625    
 BOUNDARY     69   LAYER   1   ROW     5   COL     9   RATE     515.625    
 BOUNDARY     70   LAYER   1   ROW     5   COL    10   RATE     515.625    
 BOUNDARY     71   LAYER   1   ROW     5   COL    11   RATE     515.625    
 BOUNDARY     72   LAYER   1   ROW     5   COL    12   RATE     515.625    
 BOUNDARY     73   LAYER   1   ROW     5   COL    13   RATE     515.625    
 BOUNDARY     74   LAYER   1   ROW     5   COL    14   RATE     515.625    
 BOUNDARY     75   LAYER   1   ROW     5   COL    15   RATE     515.625    
 BOUNDARY     76   LAYER   1   ROW     6   COL     1   RATE     515.625    
 BOUNDARY     77   LAYER   1   ROW     6   COL     2   RATE     515.625    
 BOUNDARY     78   LAYER   1   ROW     6   COL     3   RATE     515.625    
 BOUNDARY     79   LAYER   1   ROW     6   COL     4   RATE     515.625    
 BOUNDARY     80   LAYER   1   ROW     6   COL     5   RATE     515.625    
 BOUNDARY     81   LAYER   1   ROW     6   COL     6   RATE     515.625    
 BOUNDARY     82   LAYER   1   ROW     6   COL     7   RATE     515.625    
 BOUNDARY     83   LAYER   1   ROW     6   COL     8   RATE     515.625    
 BOUNDARY     84   LAYER   1   ROW     6   COL     9   RATE     515.625    
 BOUNDARY     85   LAYER   1   ROW     6   COL    10   RATE     515.625    
 BOUNDARY     86   LAYER   1   ROW     6   COL    11   RATE     515.625    
 BOUNDARY     87   LAYER   1   ROW     6   COL    12   RATE     515.625    
 BOUNDARY     88   LAYER   1   ROW     6   COL    13   RATE     515.625    
 BOUNDARY     89   LAYER   1   ROW     6   COL    14   RATE     515.625    
 BOUNDARY     90   LAYER   1   ROW     6   COL    15   RATE     515.625    
 BOUNDARY     91   LAYER   1   ROW     7   COL     1   RATE     515.625    
 BOUNDARY     92   LAYER   1   ROW     7   COL     2   RATE     515.625    
 BOUNDARY     93   LAYER   1   ROW     7   COL     3   RATE     515.625    
 BOUNDARY     94   LAYER   1   ROW     7   COL     4   RATE     515.625    
 BOUNDARY     95   LAYER   1   ROW     7   COL     5   RATE     515.625    
 BOUNDARY     96   LAYER   1   ROW     7   COL     6   RATE     515.625    
 BOUNDARY     97   LAYER   1   ROW     7   COL     7   RATE     515.625    
 BOUNDARY     98   LAYER   1   ROW     7   COL     8   RATE     515.625    
 BOUNDARY     99   LAYER   1   ROW     7   COL     9   RATE     515.625    
 BOUNDARY    100   LAYER   1   ROW     7   COL    10   RATE     515.625    
 BOUNDARY    101   LAYER   1   ROW     7   COL    11   RATE     515.625    
 BOUNDARY    102   LAYER   1   ROW     7   COL    12   RATE     515.625    
 BOUNDARY    103   LAYER   1   ROW     7   COL    13   RATE     515.625    
 BOUNDARY    104   LAYER   1   ROW     7   COL    14   RATE     515.625    
 BOUNDARY    105   LAYER   1   ROW     7   COL    15   RATE     515.625    
 BOUNDARY    106   LAYER   1   ROW     8   COL     1   RATE     515.625    
 BOUNDARY    107   LAYER   1   ROW     8   COL     2   RATE     515.625    
 BOUNDARY    108   LAYER   1   ROW     8   COL     3   RATE     515.625    
 BOUNDARY    109   LAYER   1   ROW     8   COL     4   RATE     515.625    
 BOUNDARY    110   LAYER   1   ROW     8   COL     5   RATE     515.625    
 BOUNDARY    111   LAYER   1   ROW     8   COL     6   RATE     515.625    
 BOUNDARY    112   LAYER   1   ROW     8   COL     7   RATE     515.625    
 BOUNDARY    113   LAYER   1   ROW     8   COL     8   RATE     515.625    
 BOUNDARY    114   LAYER   1   ROW     8   COL     9   RATE     515.625    
 BOUNDARY    115   LAYER   1   ROW     8   COL    10   RATE     515.625    
 BOUNDARY    116   LAYER   1   ROW     8   COL    11   RATE     515.625    
 BOUNDARY    117   LAYER   1   ROW     8   COL    12   RATE     515.625    
 BOUNDARY    118   LAYER   1   ROW     8   COL    13   RATE     515.625    
 BOUNDARY    119   LAYER   1   ROW     8   COL    14   RATE     515.625    
 BOUNDARY    120   LAYER   1   ROW     8   COL    15   RATE     515.625    
 BOUNDARY    121   LAYER   1   ROW     9   COL     1   RATE     515.625    
 BOUNDARY    122   LAYER   1   ROW     9   COL     2   RATE     515.625    
 BOUNDARY    123   LAYER   1   ROW     9   COL     3   RATE     515.625    
 BOUNDARY    124   LAYER   1   ROW     9   COL     4   RATE     515.625    
 BOUNDARY    125   LAYER   1   ROW     9   COL     5   RATE     515.625    
 BOUNDARY    126   LAYER   1   ROW     9   COL     6   RATE     515.625    
 BOUNDARY    127   LAYER   1   ROW     9   COL     7   RATE     515.625    
 BOUNDARY    128   LAYER   1   ROW     9   COL     8   RATE     515.625    
 BOUNDARY    129   LAYER   1   ROW     9   COL     9   RATE     515.625    
 BOUNDARY    130   LAYER   1   ROW     9   COL    10   RATE     515.625    
 BOUNDARY    131   LAYER   1   ROW     9   COL    11   RATE     515.625    
 BOUNDARY    132   LAYER   1   ROW     9   COL    12   RATE     515.625    
 BOUNDARY    133   LAYER   1   ROW     9   COL    13   RATE     515.625    
 BOUNDARY    134   LAYER   1   ROW     9   COL    14   RATE     515.625    
 BOUNDARY    135   LAYER   1   ROW     9   COL    15   RATE     515.625    
 BOUNDARY    136   LAYER   1   ROW    10   COL     1   RATE     515.625    
 BOUNDARY    137   LAYER   1   ROW    10   COL     2   RATE     515.625    
 BOUNDARY    138   LAYER   1   ROW    10   COL     3   RATE     515.625    
 BOUNDARY    139   LAYER   1   ROW    10   COL     4   RATE     515.625    
 BOUNDARY    140   LAYER   1   ROW    10   COL     5   RATE     515.625    
 BOUNDARY    141   LAYER   1   ROW    10   COL     6   RATE     515.625    
 BOUNDARY    142   LAYER   1   ROW    10   COL     7   RATE     515.625    
 BOUNDARY    143   LAYER   1   ROW    10   COL     8   RATE     515.625    
 BOUNDARY    144   LAYER   1   ROW    10   COL     9   RATE     515.625    
 BOUNDARY    145   LAYER   1   ROW    10   COL    10   RATE     515.625    
 BOUNDARY    146   LAYER   1   ROW    10   COL    11   RATE     515.625    
 BOUNDARY    147   LAYER   1   ROW    10   COL    12   RATE     515.625    
 BOUNDARY    148   LAYER   1   ROW    10   COL    13   RATE     515.625    
 BOUNDARY    149   LAYER   1   ROW    10   COL    14   RATE     515.625    
 BOUNDARY    150   LAYER   1   ROW    10   COL    15   RATE     515.625    
 UBDSV4 SAVING ET SEGS          ON UNIT   1016 AT TIME STEP      7, STRESS PERIOD      2

 ET SEGS            PERIOD  2   STEP  7
 BOUNDARY      1   LAYER   1   ROW     1   COL     1   RATE    -1.58465    
 BOUNDARY      2   LAYER   1   ROW     1   COL     2   RATE    -6.83201    
 BOUNDARY      3   LAYER   1   ROW     1   COL     3   RATE    -36.6232    
 BOUNDARY      4   LAYER   1   ROW     1   COL     4   RATE    -76.5625    
 BOUNDARY      5   LAYER   1   ROW     1   COL     5   RATE    -76.5625    
 BOUNDARY      6   LAYER   1   ROW     1   COL     6   RATE    -76.5625    
 BOUNDARY      7   LAYER   1   ROW     1   COL     7   RATE    -76.5625    
 BOUNDARY      8   LAYER   1   ROW     1   COL     8   RATE    -76.5625    
 BOUNDARY      9   LAYER   1   ROW     1   COL     9   RATE    -76.5625    
 BOUNDARY     10   LAYER   1   ROW     1   COL    10   RATE    -76.5625    
 BOUNDARY     11   LAYER   1   ROW     1   COL    11   RATE    -76.5625    
 BOUNDARY     12   LAYER   1   ROW     1   COL    12   RATE    -12.6479    
 BOUNDARY     13   LAYER   1   ROW     1   COL    13   RATE     0.00000    
 BOUNDARY     14   LAYER   1   ROW     1   COL    14   RATE     0.00000    
 BOUNDARY     15   LAYER   1   ROW     1   COL    15   RATE     0.00000    
 BOUNDARY     16   LAYER   1   ROW     2   COL     1   RATE     0.00000    
 BOUNDARY     17   LAYER   1   ROW     2   COL     2   RATE    -3.37460    
 BOUNDARY     18   LAYER   1   ROW     2   COL     3   RATE    -21.4517    
 BOUNDARY     19   LAYER   1   ROW     2   COL     4   RATE    -76.5625    
 BOUNDARY     20   LAYER   1   ROW     2   COL     5   RATE    -76.5625    
 BOUNDARY     21   LAYER   1   ROW     2   COL     6   RATE    -76.5625    
 BOUNDARY     22   LAYER   1   ROW     2   COL     7   RATE    -76.5625    
 BOUNDARY     23   LAYER   1   ROW     2   COL     8   RATE    -76.5625    
 BOUNDARY     24   LAYER   1   ROW     2   COL     9   RATE    -76.5625    
 BOUNDARY     25   LAYER   1   ROW     2   COL    10   RATE    -76.5625    
 BOUNDARY     26   LAYER   1   ROW     2   COL    11   RATE    -76.5625    
 BOUNDARY     27   LAYER   1   ROW     2   COL    12   RATE    -13.9805    
 BOUNDARY     28   LAYER   1   ROW     2   COL    13   RATE   -1.444799E-03
 BOUNDARY     29   LAYER   1   ROW     2   COL    14   RATE     0.00000    
 BOUNDARY     30   LAYER   1   ROW     2   COL    15   RATE     0.00000    
 BOUNDARY     31   LAYER   1   ROW     3   COL     1   RATE     0.00000    
 BOUNDARY     32   LAYER   1   ROW     3   COL     2   RATE     0.00000    
 BOUNDARY     33   LAYER   1   ROW     3   COL     3   RATE    -16.8645    
 BOUNDARY     34   LAYER   1   ROW     3   COL     4   RATE    -76.5625    
 BOUNDARY     35   LAYER   1   ROW     3   COL     5   RATE    -76.5625    
 BOUNDARY     36   LAYER   1   ROW     3   COL     6   RATE    -76.5625    
 BOUNDARY     37   LAYER   1   ROW     3   COL     7   RATE    -76.5625    
 BOUNDARY     38   LAYER   1   ROW     3   COL     8   RATE    -76.5625    
 BOUNDARY     39   LAYER   1   ROW     3   COL     9   RATE    -76.5625    
 BOUNDARY     40   LAYER   1   ROW     3   COL    10   RATE    -76.5625    
 BOUNDARY     41   LAYER   1   ROW     3   COL    11   RATE    -76.5625    
 BOUNDARY     42   LAYER   1   ROW     3   COL    12   RATE    -16.2280    
 BOUNDARY     43   LAYER   1   ROW     3   COL    13   RATE    -1.37019    
 BOUNDARY     44   LAYER   1   ROW     3   COL    14   RATE     0.00000    
 BOUNDARY     45   LAYER   1   ROW     3   COL    15   RATE     0.00000    
 BOUNDARY     46   LAYER   1   ROW     4   COL     1   RATE     0.00000    
 BOUNDARY     47   LAYER   1   ROW     4   COL     2   RATE    -2.21534    
 BOUNDARY     48   LAYER   1   ROW     4   COL     3   RATE    -19.8247    
 BOUNDARY     49   LAYER   1   ROW     4   COL     4   RATE    -76.5625    
 BOUNDARY     50   LAYER   1   ROW     4   COL     5   RATE    -76.5625    
 BOUNDARY     51   LAYER   1   ROW     4   COL     6   RATE    -76.5625    
 BOUNDARY     52   LAYER   1   ROW     4   COL     7   RATE    -76.5625    
 BOUNDARY     53   LAYER   1   ROW     4   COL     8   RATE    -76.5625    
 BOUNDARY     54   LAYER   1   ROW     4   COL     9   RATE    -76.5625    
 BOUNDARY     55   LAYER   1   ROW     4   COL    10   RATE    -76.5625    
 BOUNDARY     56   LAYER   1   ROW     4   COL    11   RATE    -76.5625    
 BOUNDARY     57   LAYER   1   ROW     4   COL    12   RATE    -18.3735    
 BOUNDARY     58   LAYER   1   ROW     4   COL    13   RATE    -2.49299    
 BOUNDARY     59   LAYER   1   ROW     4   COL    14   RATE     0.00000    
 BOUNDARY     60   LAYER   1   ROW     4   COL    15   RATE     0.00000    
 BOUNDARY     61   LAYER   1   ROW     5   COL     1   RATE     0.00000    
 BOUNDARY     62   LAYER   1   ROW     5   COL     2   RATE    -4.49204    
 BOUNDARY     63   LAYER   1   ROW     5   COL     3   RATE    -22.8789    
 BOUNDARY     64   LAYER   1   ROW     5   COL     4   RATE    -76.5625    
 BOUNDARY     65   LAYER   1   ROW     5   COL     5   RATE    -76.5625    
 BOUNDARY     66   LAYER   1   ROW     5   COL     6   RATE    -76.5625    
 BOUNDARY     67   LAYER   1   ROW     5   COL     7   RATE    -76.5625    
 BOUNDARY     68   LAYER   1   ROW     5   COL     8   RATE    -76.5625    
 BOUNDARY     69   LAYER   1   ROW     5   COL     9   RATE    -76.5625    
 BOUNDARY     70   LAYER   1   ROW     5   COL    10   RATE    -76.5625    
 BOUNDARY     71   LAYER   1   ROW     5   COL    11   RATE    -76.5625    
 BOUNDARY     72   LAYER   1   ROW     5   COL    12   RATE    -19.8613    
 BOUNDARY     73   LAYER   1   ROW     5   COL    13   RATE    -3.19763    
 BOUNDARY     74   LAYER   1   ROW     5   COL    14   RATE     0.00000    
 BOUNDARY     75   LAYER   1   ROW     5   COL    15   RATE     0.00000    
 BOUNDARY     76   LAYER   1   ROW     6   COL     1   RATE     0.00000    
 BOUNDARY     77   LAYER   1   ROW     6   COL     2   RATE    -3.39861    
 BOUNDARY     78   LAYER   1   ROW     6   COL     3   RATE    -25.4663    
 BOUNDARY     79   LAYER   1   ROW     6   COL     4   RATE    -76.5625    
 BOUNDARY     80   LAYER   1   ROW     6   COL     5   RATE    -76.5625    
 BOUNDARY     81   LAYER   1   ROW     6   COL     6   RATE    -76.5625    
 BOUNDARY     82   LAYER   1   ROW     6   COL     7   RATE    -76.5625    
 BOUNDARY     83   LAYER   1   ROW     6   COL     8   RATE    -76.5625    
 BOUNDARY     84   LAYER   1   ROW     6   COL     9   RATE    -76.5625    
 BOUNDARY     85   LAYER   1   ROW     6   COL    10   RATE    -76.5625    
 BOUNDARY     86   LAYER   1   ROW     6   COL    11   RATE    -76.5625    
 BOUNDARY     87   LAYER   1   ROW     6   COL    12   RATE    -20.3587    
 BOUNDARY     88   LAYER   1   ROW     6   COL    13   RATE    -3.16692    
 BOUNDARY     89   LAYER   1   ROW     6   COL    14   RATE     0.00000    
 BOUNDARY     90   LAYER   1   ROW     6   COL    15   RATE     0.00000    
 BOUNDARY     91   LAYER   1   ROW     7   COL     1   RATE     0.00000    
 BOUNDARY     92   LAYER   1   ROW     7   COL     2   RATE   -0.724717    
 BOUNDARY     93   LAYER   1   ROW     7   COL     3   RATE    -30.7537    
 BOUNDARY     94   LAYER   1   ROW     7   COL     4   RATE    -76.5625    
 BOUNDARY     95   LAYER   1   ROW     7   COL     5   RATE    -76.5625    
 BOUNDARY     96   LAYER   1   ROW     7   COL     6   RATE    -76.5625    
 BOUNDARY     97   LAYER   1   ROW     7   COL     7   RATE    -76.5625    
 BOUNDARY     98   LAYER   1   ROW     7   COL     8   RATE    -76.5625    
 BOUNDARY     99   LAYER   1   ROW     7   COL     9   RATE    -76.5625    
 BOUNDARY    100   LAYER   1   ROW     7   COL    10   RATE    -76.5625    
 BOUNDARY    101   LAYER   1   ROW     7   COL    11   RATE    -76.5625    
 BOUNDARY    102   LAYER   1   ROW     7   COL    12   RATE    -20.2319    
 BOUNDARY    103   LAYER   1   ROW     7   COL    13   RATE    -2.60138    
 BOUNDARY    104   LAYER   1   ROW     7   COL    14   RATE     0.00000    
 BOUNDARY    105   LAYER   1   ROW     7   COL    15   RATE     0.00000    
 BOUNDARY    106   LAYER   1   ROW     8   COL     1   RATE     0.00000    
 BOUNDARY    107   LAYER   1   ROW     8   COL     2   RATE    -8.43269    
 BOUNDARY    108   LAYER   1   ROW     8   COL     3   RATE    -76.5625    
 BOUNDARY    109   LAYER   1   ROW     8   COL     4   RATE    -76.5625    
 BOUNDARY    110   LAYER   1   ROW     8   COL     5   RATE    -76.5625    
 BOUNDARY    111   LAYER   1   ROW     8   COL     6   RATE    -76.5625    
 BOUNDARY    112   LAYER   1   ROW     8   COL     7   RATE    -76.5625    
 BOUNDARY    113   LAYER   1   ROW     8   COL     8   RATE    -76.5625    
 BOUNDARY    114   LAYER   1   ROW     8   COL     9   RATE    -76.5625    
 BOUNDARY    115   LAYER   1   ROW     8   COL    10   RATE    -76.5625    
 BOUNDARY    116   LAYER   1   ROW     8   COL    11   RATE    -76.5625    
 BOUNDARY    117   LAYER   1   ROW     8   COL    12   RATE    -20.5269    
 BOUNDARY    118   LAYER   1   ROW     8   COL    13   RATE    -2.60044    
 BOUNDARY    119   LAYER   1   ROW     8   COL    14   RATE     0.00000    
 BOUNDARY    120   LAYER   1   ROW     8   COL    15   RATE     0.00000    
 BOUNDARY    121   LAYER   1   ROW     9   COL     1   RATE    -14.2367    
 BOUNDARY    122   LAYER   1   ROW     9   COL     2   RATE    -45.3935    
 BOUNDARY    123   LAYER   1   ROW     9   COL     3   RATE    -76.5625    
 BOUNDARY    124   LAYER   1   ROW     9   COL     4   RATE    -76.5625    
 BOUNDARY    125   LAYER   1   ROW     9   COL     5   RATE    -76.5625    
 BOUNDARY    126   LAYER   1   ROW     9   COL     6   RATE    -76.5625    
 BOUNDARY    127   LAYER   1   ROW     9   COL     7   RATE    -76.5625    
 BOUNDARY    128   LAYER   1   ROW     9   COL     8   RATE    -76.5625    
 BOUNDARY    129   LAYER   1   ROW     9   COL     9   RATE    -76.5625    
 BOUNDARY    130   LAYER   1   ROW     9   COL    10   RATE    -76.5625    
 BOUNDARY    131   LAYER   1   ROW     9   COL    11   RATE    -76.5625    
 BOUNDARY    132   LAYER   1   ROW     9   COL    12   RATE    -21.3645    
 BOUNDARY    133   LAYER   1   ROW     9   COL    13   RATE    -3.22123    
 BOUNDARY    134   LAYER   1   ROW     9   COL    14   RATE     0.00000    
 BOUNDARY    135   LAYER   1   ROW     9   COL    15   RATE     0.00000    
 BOUNDARY    136   LAYER   1   ROW    10   COL     1   RATE    -51.6953    
 BOUNDARY    137   LAYER   1   ROW    10   COL     2   RATE    -76.5625    
 BOUNDARY    138   LAYER   1   ROW    10   COL     3   RATE    -76.5625    
 BOUNDARY    139   LAYER   1   ROW    10   COL     4   RATE    -76.5625    
 BOUNDARY    140   LAYER   1   ROW    10   COL     5   RATE    -76.5625    
 BOUNDARY    141   LAYER   1   ROW    10   COL     6   RATE    -76.5625    
 BOUNDARY    142   LAYER   1   ROW    10   COL     7   RATE    -76.5625    
 BOUNDARY    143   LAYER   1   ROW    10   COL     8   RATE    -76.5625    
 BOUNDARY    144   LAYER   1   ROW    10   COL     9   RATE    -76.5625    
 BOUNDARY    145   LAYER   1   ROW    10   COL    10   RATE    -76.5625    
 BOUNDARY    146   LAYER   1   ROW    10   COL    11   RATE    -76.5625    
 BOUNDARY    147   LAYER   1   ROW    10   COL    12   RATE    -21.9725    
 BOUNDARY    148   LAYER   1   ROW    10   COL    13   RATE    -3.62300    
 BOUNDARY    149   LAYER   1   ROW    10   COL    14   RATE     0.00000    
 BOUNDARY    150   LAYER   1   ROW    10   COL    15   RATE     0.00000    

 HEAD WILL BE SAVED ON UNIT 1017 AT END OF TIME STEP    7, STRESS PERIOD    2
WEL   no.    1 value from time series:   0.0000     for time:  8.000     to  9.000    
WEL   no.    2 value from time series:   0.0000     for time:  8.000     to  9.000    
RIV   no.    1 value from time series:   102.17     for time:  8.000     to  9.000    
RIV   no.    2 value from time series:   102.17     for time:  8.000     to  9.000    
RIV   no.    3 value from time series:   112.52     for time:  8.000     to  9.000    
RIV   no.    4 value from time series:   112.52     for time:  8.000     to  9.000    
RIV   no.    5 value from time series:   115.28     for time:  8.000     to  9.000    
RIV   no.    6 value from time series:   115.28     for time:  8.000     to  9.000    
RIV   no.    7 value from time series:   104.28     for time:  8.000     to  9.000    
RIV   no.    8 value from time series:   104.28     for time:  8.000     to  9.000    
RIV   no.    9 value from time series:   115.10     for time:  8.000     to  9.000    
RIV   no.   10 value from time series:   115.10     for time:  8.000     to  9.000    
WEL   no.    1 value from time series:   0.0000     for time:  8.000     to  9.000    
WEL   no.    2 value from time series:   0.0000     for time:  8.000     to  9.000    
RIV   no.    1 value from time series:   102.17     for time:  8.000     to  9.000    
RIV   no.    2 value from time series:   102.17     for time:  8.000     to  9.000    
RIV   no.    3 value from time series:   112.52     for time:  8.000     to  9.000    
RIV   no.    4 value from time series:   112.52     for time:  8.000     to  9.000    
RIV   no.    5 value from time series:   115.28     for time:  8.000     to  9.000    
RIV   no.    6 value from time series:   115.28     for time:  8.000     to  9.000    
RIV   no.    7 value from time series:   104.28     for time:  8.000     to  9.000    
RIV   no.    8 value from time series:   104.28     for time:  8.000     to  9.000    
RIV   no.    9 value from time series:   115.10     for time:  8.000     to  9.000    
RIV   no.   10 value from time series:   115.10     for time:  8.000     to  9.000    

 OUTPUT CONTROL FOR STRESS PERIOD    2   TIME STEP    8
    SAVE BUDGET
    SAVE HEAD
    SAVE HEAD FOR ALL LAYERS
 UBDSV1 SAVING          STORAGE ON UNIT   1016 AT TIME STEP      8, STRESS PERIOD      2
 UBDSV1 SAVING FLOW RIGHT FACE  ON UNIT   1016 AT TIME STEP      8, STRESS PERIOD      2
 UBDSV1 SAVING FLOW FRONT FACE  ON UNIT   1016 AT TIME STEP      8, STRESS PERIOD      2
 UBDSV1 SAVING FLOW LOWER FACE  ON UNIT   1016 AT TIME STEP      8, STRESS PERIOD      2
 UBDSV4 SAVING WELLS NEAR RIVER ON UNIT   1016 AT TIME STEP      8, STRESS PERIOD      2

 WELLS NEAR RIVER   PERIOD  2   STEP  8
 BOUNDARY      1   LAYER   2   ROW     3   COL     4   RATE     0.00000      WELL_1
 BOUNDARY      2   LAYER   2   ROW     8   COL     4   RATE     0.00000      WELL_2
 BOUNDARY      3   LAYER   2   ROW     4   COL     6   RATE   -10.00000    
 BOUNDARY      4   LAYER   2   ROW     5   COL     8   RATE    -20.0000    
 BOUNDARY      5   LAYER   2   ROW     2   COL     9   RATE    -40.0000    
 UBDSV4 SAVING RIVER            ON UNIT   1016 AT TIME STEP      8, STRESS PERIOD      2

 RIVER              PERIOD  2   STEP  8
 BOUNDARY      1   LAYER   1   ROW     1   COL    15   RATE    -4040.54    
 BOUNDARY      2   LAYER   1   ROW     2   COL    15   RATE    -5133.61      RIV2
 BOUNDARY      3   LAYER   1   ROW     3   COL    15   RATE    -1257.13      RIV3
 BOUNDARY      4   LAYER   1   ROW     4   COL    15   RATE    -2732.32    
 BOUNDARY      5   LAYER   1   ROW     5   COL    15   RATE    -2254.99    
 BOUNDARY      6   LAYER   1   ROW     6   COL    15   RATE    -1632.53    
 BOUNDARY      7   LAYER   1   ROW     7   COL    15   RATE    -6106.62      RIVX
 BOUNDARY      8   LAYER   1   ROW     8   COL    15   RATE    -5886.58      RIVX
 BOUNDARY      9   LAYER   1   ROW     9   COL    15   RATE    -542.576      RIVX
 BOUNDARY     10   LAYER   1   ROW    10   COL    15   RATE    -1393.07    

 GHB LAKES          PERIOD  2   STEP  8
 BOUNDARY      1   LAYER   1   ROW     3   COL     1   RATE    -14419.5    
 BOUNDARY      2   LAYER   1   ROW     7   COL     1   RATE    -1819.23      GHB2_UPPER
 BOUNDARY      3   LAYER   1   ROW     7   COL     1   RATE    -13201.4      GHB2_LOWER
 UBDSV4 SAVING RECHARGE         ON UNIT   1016 AT TIME STEP      8, STRESS PERIOD      2

 RECHARGE           PERIOD  2   STEP  8
 BOUNDARY      1   LAYER   1   ROW     1   COL     1   RATE     517.708    
 BOUNDARY      2   LAYER   1   ROW     1   COL     2   RATE     517.708    
 BOUNDARY      3   LAYER   1   ROW     1   COL     3   RATE     517.708    
 BOUNDARY      4   LAYER   1   ROW     1   COL     4   RATE     517.708    
 BOUNDARY      5   LAYER   1   ROW     1   COL     5   RATE     517.708    
 BOUNDARY      6   LAYER   1   ROW     1   COL     6   RATE     517.708    
 BOUNDARY      7   LAYER   1   ROW     1   COL     7   RATE     517.708    
 BOUNDARY      8   LAYER   1   ROW     1   COL     8   RATE     517.708    
 BOUNDARY      9   LAYER   1   ROW     1   COL     9   RATE     517.708    
 BOUNDARY     10   LAYER   1   ROW     1   COL    10   RATE     517.708    
 BOUNDARY     11   LAYER   1   ROW     1   COL    11   RATE     517.708    
 BOUNDARY     12   LAYER   1   ROW     1   COL    12   RATE     517.708    
 BOUNDARY     13   LAYER   1   ROW     1   COL    13   RATE     517.708    
 BOUNDARY     14   LAYER   1   ROW     1   COL    14   RATE     517.708    
 BOUNDARY     15   LAYER   1   ROW     1   COL    15   RATE     517.708    
 BOUNDARY     16   LAYER   1   ROW     2   COL     1   RATE     517.708    
 BOUNDARY     17   LAYER   1   ROW     2   COL     2   RATE     517.708    
 BOUNDARY     18   LAYER   1   ROW     2   COL     3   RATE     517.708    
 BOUNDARY     19   LAYER   1   ROW     2   COL     4   RATE     517.708    
 BOUNDARY     20   LAYER   1   ROW     2   COL     5   RATE     517.708    
 BOUNDARY     21   LAYER   1   ROW     2   COL     6   RATE     517.708    
 BOUNDARY     22   LAYER   1   ROW     2   COL     7   RATE     517.708    
 BOUNDARY     23   LAYER   1   ROW     2   COL     8   RATE     517.708    
 BOUNDARY     24   LAYER   1   ROW     2   COL     9   RATE     517.708    
 BOUNDARY     25   LAYER   1   ROW     2   COL    10   RATE     517.708    
 BOUNDARY     26   LAYER   1   ROW     2   COL    11   RATE     517.708    
 BOUNDARY     27   LAYER   1   ROW     2   COL    12   RATE     517.708    
 BOUNDARY     28   LAYER   1   ROW     2   COL    13   RATE     517.708    
 BOUNDARY     29   LAYER   1   ROW     2   COL    14   RATE     517.708    
 BOUNDARY     30   LAYER   1   ROW     2   COL    15   RATE     517.708    
 BOUNDARY     31   LAYER   1   ROW     3   COL     1   RATE     517.708    
 BOUNDARY     32   LAYER   1   ROW     3   COL     2   RATE     517.708    
 BOUNDARY     33   LAYER   1   ROW     3   COL     3   RATE     517.708    
 BOUNDARY     34   LAYER   1   ROW     3   COL     4   RATE     517.708    
 BOUNDARY     35   LAYER   1   ROW     3   COL     5   RATE     517.708    
 BOUNDARY     36   LAYER   1   ROW     3   COL     6   RATE     517.708    
 BOUNDARY     37   LAYER   1   ROW     3   COL     7   RATE     517.708    
 BOUNDARY     38   LAYER   1   ROW     3   COL     8   RATE     517.708    
 BOUNDARY     39   LAYER   1   ROW     3   COL     9   RATE     517.708    
 BOUNDARY     40   LAYER   1   ROW     3   COL    10   RATE     517.708    
 BOUNDARY     41   LAYER   1   ROW     3   COL    11   RATE     517.708    
 BOUNDARY     42   LAYER   1   ROW     3   COL    12   RATE     517.708    
 BOUNDARY     43   LAYER   1   ROW     3   COL    13   RATE     517.708    
 BOUNDARY     44   LAYER   1   ROW     3   COL    14   RATE     517.708    
 BOUNDARY     45   LAYER   1   ROW     3   COL    15   RATE     517.708    
 BOUNDARY     46   LAYER   1   ROW     4   COL     1   RATE     517.708    
 BOUNDARY     47   LAYER   1   ROW     4   COL     2   RATE     517.708    
 BOUNDARY     48   LAYER   1   ROW     4   COL     3   RATE     517.708    
 BOUNDARY     49   LAYER   1   ROW     4   COL     4   RATE     517.708    
 BOUNDARY     50   LAYER   1   ROW     4   COL     5   RATE     517.708    
 BOUNDARY     51   LAYER   1   ROW     4   COL     6   RATE     517.708    
 BOUNDARY     52   LAYER   1   ROW     4   COL     7   RATE     517.708    
 BOUNDARY     53   LAYER   1   ROW     4   COL     8   RATE     517.708    
 BOUNDARY     54   LAYER   1   ROW     4   COL     9   RATE     517.708    
 BOUNDARY     55   LAYER   1   ROW     4   COL    10   RATE     517.708    
 BOUNDARY     56   LAYER   1   ROW     4   COL    11   RATE     517.708    
 BOUNDARY     57   LAYER   1   ROW     4   COL    12   RATE     517.708    
 BOUNDARY     58   LAYER   1   ROW     4   COL    13   RATE     517.708    
 BOUNDARY     59   LAYER   1   ROW     4   COL    14   RATE     517.708    
 BOUNDARY     60   LAYER   1   ROW     4   COL    15   RATE     517.708    
 BOUNDARY     61   LAYER   1   ROW     5   COL     1   RATE     517.708    
 BOUNDARY     62   LAYER   1   ROW     5   COL     2   RATE     517.708    
 BOUNDARY     63   LAYER   1   ROW     5   COL     3   RATE     517.708    
 BOUNDARY     64   LAYER   1   ROW     5   COL     4   RATE     517.708    
 BOUNDARY     65   LAYER   1   ROW     5   COL     5   RATE     517.708    
 BOUNDARY     66   LAYER   1   ROW     5   COL     6   RATE     517.708    
 BOUNDARY     67   LAYER   1   ROW     5   COL     7   RATE     517.708    
 BOUNDARY     68   LAYER   1   ROW     5   COL     8   RATE     517.708    
 BOUNDARY     69   LAYER   1   ROW     5   COL     9   RATE     517.708    
 BOUNDARY     70   LAYER   1   ROW     5   COL    10   RATE     517.708    
 BOUNDARY     71   LAYER   1   ROW     5   COL    11   RATE     517.708    
 BOUNDARY     72   LAYER   1   ROW     5   COL    12   RATE     517.708    
 BOUNDARY     73   LAYER   1   ROW     5   COL    13   RATE     517.708    
 BOUNDARY     74   LAYER   1   ROW     5   COL    14   RATE     517.708    
 BOUNDARY     75   LAYER   1   ROW     5   COL    15   RATE     517.708    
 BOUNDARY     76   LAYER   1   ROW     6   COL     1   RATE     517.708    
 BOUNDARY     77   LAYER   1   ROW     6   COL     2   RATE     517.708    
 BOUNDARY     78   LAYER   1   ROW     6   COL     3   RATE     517.708    
 BOUNDARY     79   LAYER   1   ROW     6   COL     4   RATE     517.708    
 BOUNDARY     80   LAYER   1   ROW     6   COL     5   RATE     517.708    
 BOUNDARY     81   LAYER   1   ROW     6   COL     6   RATE     517.708    
 BOUNDARY     82   LAYER   1   ROW     6   COL     7   RATE     517.708    
 BOUNDARY     83   LAYER   1   ROW     6   COL     8   RATE     517.708    
 BOUNDARY     84   LAYER   1   ROW     6   COL     9   RATE     517.708    
 BOUNDARY     85   LAYER   1   ROW     6   COL    10   RATE     517.708    
 BOUNDARY     86   LAYER   1   ROW     6   COL    11   RATE     517.708    
 BOUNDARY     87   LAYER   1   ROW     6   COL    12   RATE     517.708    
 BOUNDARY     88   LAYER   1   ROW     6   COL    13   RATE     517.708    
 BOUNDARY     89   LAYER   1   ROW     6   COL    14   RATE     517.708    
 BOUNDARY     90   LAYER   1   ROW     6   COL    15   RATE     517.708    
 BOUNDARY     91   LAYER   1   ROW     7   COL     1   RATE     517.708    
 BOUNDARY     92   LAYER   1   ROW     7   COL     2   RATE     517.708    
 BOUNDARY     93   LAYER   1   ROW     7   COL     3   RATE     517.708    
 BOUNDARY     94   LAYER   1   ROW     7   COL     4   RATE     517.708    
 BOUNDARY     95   LAYER   1   ROW     7   COL     5   RATE     517.708    
 BOUNDARY     96   LAYER   1   ROW     7   COL     6   RATE     517.708    
 BOUNDARY     97   LAYER   1   ROW     7   COL     7   RATE     517.708    
 BOUNDARY     98   LAYER   1   ROW     7   COL     8   RATE     517.708    
 BOUNDARY     99   LAYER   1   ROW     7   COL     9   RATE     517.708    
 BOUNDARY    100   LAYER   1   ROW     7   COL    10   RATE     517.708    
 BOUNDARY    101   LAYER   1   ROW     7   COL    11   RATE     517.708    
 BOUNDARY    102   LAYER   1   ROW     7   COL    12   RATE     517.708    
 BOUNDARY    103   LAYER   1   ROW     7   COL    13   RATE     517.708    
 BOUNDARY    104   LAYER   1   ROW     7   COL    14   RATE     517.708    
 BOUNDARY    105   LAYER   1   ROW     7   COL    15   RATE     517.708    
 BOUNDARY    106   LAYER   1   ROW     8   COL     1   RATE     517.708    
 BOUNDARY    107   LAYER   1   ROW     8   COL     2   RATE     517.708    
 BOUNDARY    108   LAYER   1   ROW     8   COL     3   RATE     517.708    
 BOUNDARY    109   LAYER   1   ROW     8   COL     4   RATE     517.708    
 BOUNDARY    110   LAYER   1   ROW     8   COL     5   RATE     517.708    
 BOUNDARY    111   LAYER   1   ROW     8   COL     6   RATE     517.708    
 BOUNDARY    112   LAYER   1   ROW     8   COL     7   RATE     517.708    
 BOUNDARY    113   LAYER   1   ROW     8   COL     8   RATE     517.708    
 BOUNDARY    114   LAYER   1   ROW     8   COL     9   RATE     517.708    
 BOUNDARY    115   LAYER   1   ROW     8   COL    10   RATE     517.708    
 BOUNDARY    116   LAYER   1   ROW     8   COL    11   RATE     517.708    
 BOUNDARY    117   LAYER   1   ROW     8   COL    12   RATE     517.708    
 BOUNDARY    118   LAYER   1   ROW     8   COL    13   RATE     517.708    
 BOUNDARY    119   LAYER   1   ROW     8   COL    14   RATE     517.708    
 BOUNDARY    120   LAYER   1   ROW     8   COL    15   RATE     517.708    
 BOUNDARY    121   LAYER   1   ROW     9   COL     1   RATE     517.708    
 BOUNDARY    122   LAYER   1   ROW     9   COL     2   RATE     517.708    
 BOUNDARY    123   LAYER   1   ROW     9   COL     3   RATE     517.708    
 BOUNDARY    124   LAYER   1   ROW     9   COL     4   RATE     517.708    
 BOUNDARY    125   LAYER   1   ROW     9   COL     5   RATE     517.708    
 BOUNDARY    126   LAYER   1   ROW     9   COL     6   RATE     517.708    
 BOUNDARY    127   LAYER   1   ROW     9   COL     7   RATE     517.708    
 BOUNDARY    128   LAYER   1   ROW     9   COL     8   RATE     517.708    
 BOUNDARY    129   LAYER   1   ROW     9   COL     9   RATE     517.708    
 BOUNDARY    130   LAYER   1   ROW     9   COL    10   RATE     517.708    
 BOUNDARY    131   LAYER   1   ROW     9   COL    11   RATE     517.708    
 BOUNDARY    132   LAYER   1   ROW     9   COL    12   RATE     517.708    
 BOUNDARY    133   LAYER   1   ROW     9   COL    13   RATE     517.708    
 BOUNDARY    134   LAYER   1   ROW     9   COL    14   RATE     517.708    
 BOUNDARY    135   LAYER   1   ROW     9   COL    15   RATE     517.708    
 BOUNDARY    136   LAYER   1   ROW    10   COL     1   RATE     517.708    
 BOUNDARY    137   LAYER   1   ROW    10   COL     2   RATE     517.708    
 BOUNDARY    138   LAYER   1   ROW    10   COL     3   RATE     517.708    
 BOUNDARY    139   LAYER   1   ROW    10   COL     4   RATE     517.708    
 BOUNDARY    140   LAYER   1   ROW    10   COL     5   RATE     517.708    
 BOUNDARY    141   LAYER   1   ROW    10   COL     6   RATE     517.708    
 BOUNDARY    142   LAYER   1   ROW    10   COL     7   RATE     517.708    
 BOUNDARY    143   LAYER   1   ROW    10   COL     8   RATE     517.708    
 BOUNDARY    144   LAYER   1   ROW    10   COL     9   RATE     517.708    
 BOUNDARY    145   LAYER   1   ROW    10   COL    10   RATE     517.708    
 BOUNDARY    146   LAYER   1   ROW    10   COL    11   RATE     517.708    
 BOUNDARY    147   LAYER   1   ROW    10   COL    12   RATE     517.708    
 BOUNDARY    148   LAYER   1   ROW    10   COL    13   RATE     517.708    
 BOUNDARY    149   LAYER   1   ROW    10   COL    14   RATE     517.708    
 BOUNDARY    150   LAYER   1   ROW    10   COL    15   RATE     517.708    
 UBDSV4 SAVING ET SEGS          ON UNIT   1016 AT TIME STEP      8, STRESS PERIOD      2

 ET SEGS            PERIOD  2   STEP  8
 BOUNDARY      1   LAYER   1   ROW     1   COL     1   RATE    -1.59002    
 BOUNDARY      2   LAYER   1   ROW     1   COL     2   RATE    -6.85179    
 BOUNDARY      3   LAYER   1   ROW     1   COL     3   RATE    -36.7523    
 BOUNDARY      4   LAYER   1   ROW     1   COL     4   RATE    -76.7708    
 BOUNDARY      5   LAYER   1   ROW     1   COL     5   RATE    -76.7708    
 BOUNDARY      6   LAYER   1   ROW     1   COL     6   RATE    -76.7708    
 BOUNDARY      7   LAYER   1   ROW     1   COL     7   RATE    -76.7708    
 BOUNDARY      8   LAYER   1   ROW     1   COL     8   RATE    -76.7708    
 BOUNDARY      9   LAYER   1   ROW     1   COL     9   RATE    -76.7708    
 BOUNDARY     10   LAYER   1   ROW     1   COL    10   RATE    -76.7708    
 BOUNDARY     11   LAYER   1   ROW     1   COL    11   RATE    -76.7708    
 BOUNDARY     12   LAYER   1   ROW     1   COL    12   RATE    -12.6869    
 BOUNDARY     13   LAYER   1   ROW     1   COL    13   RATE     0.00000    
 BOUNDARY     14   LAYER   1   ROW     1   COL    14   RATE     0.00000    
 BOUNDARY     15   LAYER   1   ROW     1   COL    15   RATE     0.00000    
 BOUNDARY     16   LAYER   1   ROW     2   COL     1   RATE     0.00000    
 BOUNDARY     17   LAYER   1   ROW     2   COL     2   RATE    -3.38489    
 BOUNDARY     18   LAYER   1   ROW     2   COL     3   RATE    -21.5150    
 BOUNDARY     19   LAYER   1   ROW     2   COL     4   RATE    -76.7708    
 BOUNDARY     20   LAYER   1   ROW     2   COL     5   RATE    -76.7708    
 BOUNDARY     21   LAYER   1   ROW     2   COL     6   RATE    -76.7708    
 BOUNDARY     22   LAYER   1   ROW     2   COL     7   RATE    -76.7708    
 BOUNDARY     23   LAYER   1   ROW     2   COL     8   RATE    -76.7708    
 BOUNDARY     24   LAYER   1   ROW     2   COL     9   RATE    -76.7708    
 BOUNDARY     25   LAYER   1   ROW     2   COL    10   RATE    -76.7708    
 BOUNDARY     26   LAYER   1   ROW     2   COL    11   RATE    -76.7708    
 BOUNDARY     27   LAYER   1   ROW     2   COL    12   RATE    -14.0231    
 BOUNDARY     28   LAYER   1   ROW     2   COL    13   RATE   -2.858036E-03
 BOUNDARY     29   LAYER   1   ROW     2   COL    14   RATE     0.00000    
 BOUNDARY     30   LAYER   1   ROW     2   COL    15   RATE     0.00000    
 BOUNDARY     31   LAYER   1   ROW     3   COL     1   RATE     0.00000    
 BOUNDARY     32   LAYER   1   ROW     3   COL     2   RATE     0.00000    
 BOUNDARY     33   LAYER   1   ROW     3   COL     3   RATE    -16.9152    
 BOUNDARY     34   LAYER   1   ROW     3   COL     4   RATE    -76.7708    
 BOUNDARY     35   LAYER   1   ROW     3   COL     5   RATE    -76.7708    
 BOUNDARY     36   LAYER   1   ROW     3   COL     6   RATE    -76.7708    
 BOUNDARY     37   LAYER   1   ROW     3   COL     7   RATE    -76.7708    
 BOUNDARY     38   LAYER   1   ROW     3   COL     8   RATE    -76.7708    
 BOUNDARY     39   LAYER   1   ROW     3   COL     9   RATE    -76.7708    
 BOUNDARY     40   LAYER   1   ROW     3   COL    10   RATE    -76.7708    
 BOUNDARY     41   LAYER   1   ROW     3   COL    11   RATE    -76.7708    
 BOUNDARY     42   LAYER   1   ROW     3   COL    12   RATE    -16.2768    
 BOUNDARY     43   LAYER   1   ROW     3   COL    13   RATE    -1.37526    
 BOUNDARY     44   LAYER   1   ROW     3   COL    14   RATE     0.00000    
 BOUNDARY     45   LAYER   1   ROW     3   COL    15   RATE     0.00000    
 BOUNDARY     46   LAYER   1   ROW     4   COL     1   RATE     0.00000    
 BOUNDARY     47   LAYER   1   ROW     4   COL     2   RATE    -2.22246    
 BOUNDARY     48   LAYER   1   ROW     4   COL     3   RATE    -19.8835    
 BOUNDARY     49   LAYER   1   ROW     4   COL     4   RATE    -76.7708    
 BOUNDARY     50   LAYER   1   ROW     4   COL     5   RATE    -76.7708    
 BOUNDARY     51   LAYER   1   ROW     4   COL     6   RATE    -76.7708    
 BOUNDARY     52   LAYER   1   ROW     4   COL     7   RATE    -76.7708    
 BOUNDARY     53   LAYER   1   ROW     4   COL     8   RATE    -76.7708    
 BOUNDARY     54   LAYER   1   ROW     4   COL     9   RATE    -76.7708    
 BOUNDARY     55   LAYER   1   ROW     4   COL    10   RATE    -76.7708    
 BOUNDARY     56   LAYER   1   ROW     4   COL    11   RATE    -76.7708    
 BOUNDARY     57   LAYER   1   ROW     4   COL    12   RATE    -18.4283    
 BOUNDARY     58   LAYER   1   ROW     4   COL    13   RATE    -2.50112    
 BOUNDARY     59   LAYER   1   ROW     4   COL    14   RATE     0.00000    
 BOUNDARY     60   LAYER   1   ROW     4   COL    15   RATE     0.00000    
 BOUNDARY     61   LAYER   1   ROW     5   COL     1   RATE     0.00000    
 BOUNDARY     62   LAYER   1   ROW     5   COL     2   RATE    -4.50539    
 BOUNDARY     63   LAYER   1   ROW     5   COL     3   RATE    -22.9462    
 BOUNDARY     64   LAYER   1   ROW     5   COL     4   RATE    -76.7708    
 BOUNDARY     65   LAYER   1   ROW     5   COL     5   RATE    -76.7708    
 BOUNDARY     66   LAYER   1   ROW     5   COL     6   RATE    -76.7708    
 BOUNDARY     67   LAYER   1   ROW     5   COL     7   RATE    -76.7708    
 BOUNDARY     68   LAYER   1   ROW     5   COL     8   RATE    -76.7708    
 BOUNDARY     69   LAYER   1   ROW     5   COL     9   RATE    -76.7708    
 BOUNDARY     70   LAYER   1   ROW     5   COL    10   RATE    -76.7708    
 BOUNDARY     71   LAYER   1   ROW     5   COL    11   RATE    -76.7708    
 BOUNDARY     72   LAYER   1   ROW     5   COL    12   RATE    -19.9203    
 BOUNDARY     73   LAYER   1   ROW     5   COL    13   RATE    -3.20758    
 BOUNDARY     74   LAYER   1   ROW     5   COL    14   RATE     0.00000    
 BOUNDARY     75   LAYER   1   ROW     5   COL    15   RATE     0.00000    
 BOUNDARY     76   LAYER   1   ROW     6   COL     1   RATE     0.00000    
 BOUNDARY     77   LAYER   1   ROW     6   COL     2   RATE    -3.40897    
 BOUNDARY     78   LAYER   1   ROW     6   COL     3   RATE    -25.5627    
 BOUNDARY     79   LAYER   1   ROW     6   COL     4   RATE    -76.7708    
 BOUNDARY     80   LAYER   1   ROW     6   COL     5   RATE    -76.7708    
 BOUNDARY     81   LAYER   1   ROW     6   COL     6   RATE    -76.7708    
 BOUNDARY     82   LAYER   1   ROW     6   COL     7   RATE    -76.7708    
 BOUNDARY     83   LAYER   1   ROW     6   COL     8   RATE    -76.7708    
 BOUNDARY     84   LAYER   1   ROW     6   COL     9   RATE    -76.7708    
 BOUNDARY     85   LAYER   1   ROW     6   COL    10   RATE    -76.7708    
 BOUNDARY     86   LAYER   1   ROW     6   COL    11   RATE    -76.7708    
 BOUNDARY     87   LAYER   1   ROW     6   COL    12   RATE    -20.4190    
 BOUNDARY     88   LAYER   1   ROW     6   COL    13   RATE    -3.17680    
 BOUNDARY     89   LAYER   1   ROW     6   COL    14   RATE     0.00000    
 BOUNDARY     90   LAYER   1   ROW     6   COL    15   RATE     0.00000    
 BOUNDARY     91   LAYER   1   ROW     7   COL     1   RATE     0.00000    
 BOUNDARY     92   LAYER   1   ROW     7   COL     2   RATE   -0.727665    
 BOUNDARY     93   LAYER   1   ROW     7   COL     3   RATE    -30.8666    
 BOUNDARY     94   LAYER   1   ROW     7   COL     4   RATE    -76.7708    
 BOUNDARY     95   LAYER   1   ROW     7   COL     5   RATE    -76.7708    
 BOUNDARY     96   LAYER   1   ROW     7   COL     6   RATE    -76.7708    
 BOUNDARY     97   LAYER   1   ROW     7   COL     7   RATE    -76.7708    
 BOUNDARY     98   LAYER   1   ROW     7   COL     8   RATE    -76.7708    
 BOUNDARY     99   LAYER   1   ROW     7   COL     9   RATE    -76.7708    
 BOUNDARY    100   LAYER   1   ROW     7   COL    10   RATE    -76.7708    
 BOUNDARY    101   LAYER   1   ROW     7   COL    11   RATE    -76.7708    
 BOUNDARY    102   LAYER   1   ROW     7   COL    12   RATE    -20.2919    
 BOUNDARY    103   LAYER   1   ROW     7   COL    13   RATE    -2.60984    
 BOUNDARY    104   LAYER   1   ROW     7   COL    14   RATE     0.00000    
 BOUNDARY    105   LAYER   1   ROW     7   COL    15   RATE     0.00000    
 BOUNDARY    106   LAYER   1   ROW     8   COL     1   RATE     0.00000    
 BOUNDARY    107   LAYER   1   ROW     8   COL     2   RATE    -8.46001    
 BOUNDARY    108   LAYER   1   ROW     8   COL     3   RATE    -76.7708    
 BOUNDARY    109   LAYER   1   ROW     8   COL     4   RATE    -76.7708    
 BOUNDARY    110   LAYER   1   ROW     8   COL     5   RATE    -76.7708    
 BOUNDARY    111   LAYER   1   ROW     8   COL     6   RATE    -76.7708    
 BOUNDARY    112   LAYER   1   ROW     8   COL     7   RATE    -76.7708    
 BOUNDARY    113   LAYER   1   ROW     8   COL     8   RATE    -76.7708    
 BOUNDARY    114   LAYER   1   ROW     8   COL     9   RATE    -76.7708    
 BOUNDARY    115   LAYER   1   ROW     8   COL    10   RATE    -76.7708    
 BOUNDARY    116   LAYER   1   ROW     8   COL    11   RATE    -76.7708    
 BOUNDARY    117   LAYER   1   ROW     8   COL    12   RATE    -20.5877    
 BOUNDARY    118   LAYER   1   ROW     8   COL    13   RATE    -2.60891    
 BOUNDARY    119   LAYER   1   ROW     8   COL    14   RATE     0.00000    
 BOUNDARY    120   LAYER   1   ROW     8   COL    15   RATE     0.00000    
 BOUNDARY    121   LAYER   1   ROW     9   COL     1   RATE    -14.2800    
 BOUNDARY    122   LAYER   1   ROW     9   COL     2   RATE    -45.5493    
 BOUNDARY    123   LAYER   1   ROW     9   COL     3   RATE    -76.7708    
 BOUNDARY    124   LAYER   1   ROW     9   COL     4   RATE    -76.7708    
 BOUNDARY    125   LAYER   1   ROW     9   COL     5   RATE    -76.7708    
 BOUNDARY    126   LAYER   1   ROW     9   COL     6   RATE    -76.7708    
 BOUNDARY    127   LAYER   1   ROW     9   COL     7   RATE    -76.7708    
 BOUNDARY    128   LAYER   1   ROW     9   COL     8   RATE    -76.7708    
 BOUNDARY    129   LAYER   1   ROW     9   COL     9   RATE    -76.7708    
 BOUNDARY    130   LAYER   1   ROW     9   COL    10   RATE    -76.7708    
 BOUNDARY    131   LAYER   1   ROW     9   COL    11   RATE    -76.7708    
 BOUNDARY    132   LAYER   1   ROW     9   COL    12   RATE    -21.4277    
 BOUNDARY    133   LAYER   1   ROW     9   COL    13   RATE    -3.23141    
 BOUNDARY    134   LAYER   1   ROW     9   COL    14   RATE     0.00000    
 BOUNDARY    135   LAYER   1   ROW     9   COL    15   RATE     0.00000    
 BOUNDARY    136   LAYER   1   ROW    10   COL     1   RATE    -51.8699    
 BOUNDARY    137   LAYER   1   ROW    10   COL     2   RATE    -76.7708    
 BOUNDARY    138   LAYER   1   ROW    10   COL     3   RATE    -76.7708    
 BOUNDARY    139   LAYER   1   ROW    10   COL     4   RATE    -76.7708    
 BOUNDARY    140   LAYER   1   ROW    10   COL     5   RATE    -76.7708    
 BOUNDARY    141   LAYER   1   ROW    10   COL     6   RATE    -76.7708    
 BOUNDARY    142   LAYER   1   ROW    10   COL     7   RATE    -76.7708    
 BOUNDARY    143   LAYER   1   ROW    10   COL     8   RATE    -76.7708    
 BOUNDARY    144   LAYER   1   ROW    10   COL     9   RATE    -76.7708    
 BOUNDARY    145   LAYER   1   ROW    10   COL    10   RATE    -76.7708    
 BOUNDARY    146   LAYER   1   ROW    10   COL    11   RATE    -76.7708    
 BOUNDARY    147   LAYER   1   ROW    10   COL    12   RATE    -22.0373    
 BOUNDARY    148   LAYER   1   ROW    10   COL    13   RATE    -3.63428    
 BOUNDARY    149   LAYER   1   ROW    10   COL    14   RATE     0.00000    
 BOUNDARY    150   LAYER   1   ROW    10   COL    15   RATE     0.00000    

 HEAD WILL BE SAVED ON UNIT 1017 AT END OF TIME STEP    8, STRESS PERIOD    2
WEL   no.    1 value from time series:   0.0000     for time:  9.000     to 10.000    
WEL   no.    2 value from time series:   0.0000     for time:  9.000     to 10.000    
RIV   no.    1 value from time series:   101.75     for time:  9.000     to 10.000    
RIV   no.    2 value from time series:   101.75     for time:  9.000     to 10.000    
RIV   no.    3 value from time series:   112.18     for time:  9.000     to 10.000    
RIV   no.    4 value from time series:   112.18     for time:  9.000     to 10.000    
RIV   no.    5 value from time series:   115.18     for time:  9.000     to 10.000    
RIV   no.    6 value from time series:   115.18     for time:  9.000     to 10.000    
RIV   no.    7 value from time series:   104.07     for time:  9.000     to 10.000    
RIV   no.    8 value from time series:   104.07     for time:  9.000     to 10.000    
RIV   no.    9 value from time series:   114.40     for time:  9.000     to 10.000    
RIV   no.   10 value from time series:   114.40     for time:  9.000     to 10.000    
WEL   no.    1 value from time series:   0.0000     for time:  9.000     to 10.000    
WEL   no.    2 value from time series:   0.0000     for time:  9.000     to 10.000    
RIV   no.    1 value from time series:   101.75     for time:  9.000     to 10.000    
RIV   no.    2 value from time series:   101.75     for time:  9.000     to 10.000    
RIV   no.    3 value from time series:   112.18     for time:  9.000     to 10.000    
RIV   no.    4 value from time series:   112.18     for time:  9.000     to 10.000    
RIV   no.    5 value from time series:   115.18     for time:  9.000     to 10.000    
RIV   no.    6 value from time series:   115.18     for time:  9.000     to 10.000    
RIV   no.    7 value from time series:   104.07     for time:  9.000     to 10.000    
RIV   no.    8 value from time series:   104.07     for time:  9.000     to 10.000    
RIV   no.    9 value from time series:   114.40     for time:  9.000     to 10.000    
RIV   no.   10 value from time series:   114.40     for time:  9.000     to 10.000    

 OUTPUT CONTROL FOR STRESS PERIOD    2   TIME STEP    9
    SAVE BUDGET
    SAVE HEAD
    SAVE HEAD FOR ALL LAYERS
 UBDSV1 SAVING          STORAGE ON UNIT   1016 AT TIME STEP      9, STRESS PERIOD      2
 UBDSV1 SAVING FLOW RIGHT FACE  ON UNIT   1016 AT TIME STEP      9, STRESS PERIOD      2
 UBDSV1 SAVING FLOW FRONT FACE  ON UNIT   1016 AT TIME STEP      9, STRESS PERIOD      2
 UBDSV1 SAVING FLOW LOWER FACE  ON UNIT   1016 AT TIME STEP      9, STRESS PERIOD      2
 UBDSV4 SAVING WELLS NEAR RIVER ON UNIT   1016 AT TIME STEP      9, STRESS PERIOD      2

 WELLS NEAR RIVER   PERIOD  2   STEP  9
 BOUNDARY      1   LAYER   2   ROW     3   COL     4   RATE     0.00000      WELL_1
 BOUNDARY      2   LAYER   2   ROW     8   COL     4   RATE     0.00000      WELL_2
 BOUNDARY      3   LAYER   2   ROW     4   COL     6   RATE   -10.00000    
 BOUNDARY      4   LAYER   2   ROW     5   COL     8   RATE    -20.0000    
 BOUNDARY      5   LAYER   2   ROW     2   COL     9   RATE    -40.0000    
 UBDSV4 SAVING RIVER            ON UNIT   1016 AT TIME STEP      9, STRESS PERIOD      2

 RIVER              PERIOD  2   STEP  9
 BOUNDARY      1   LAYER   1   ROW     1   COL    15   RATE    -4461.52    
 BOUNDARY      2   LAYER   1   ROW     2   COL    15   RATE    -5554.36      RIV2
 BOUNDARY      3   LAYER   1   ROW     3   COL    15   RATE    -1618.43      RIV3
 BOUNDARY      4   LAYER   1   ROW     4   COL    15   RATE    -3091.20    
 BOUNDARY      5   LAYER   1   ROW     5   COL    15   RATE    -2354.44    
 BOUNDARY      6   LAYER   1   ROW     6   COL    15   RATE    -1731.18    
 BOUNDARY      7   LAYER   1   ROW     7   COL    15   RATE    -6299.81      RIVX
 BOUNDARY      8   LAYER   1   ROW     8   COL    15   RATE    -6082.96      RIVX
 BOUNDARY      9   LAYER   1   ROW     9   COL    15   RATE    -1280.01      RIVX
 BOUNDARY     10   LAYER   1   ROW    10   COL    15   RATE    -2132.81    

 GHB LAKES          PERIOD  2   STEP  9
 BOUNDARY      1   LAYER   1   ROW     3   COL     1   RATE    -14419.8    
 BOUNDARY      2   LAYER   1   ROW     7   COL     1   RATE    -1818.75      GHB2_UPPER
 BOUNDARY      3   LAYER   1   ROW     7   COL     1   RATE    -13201.2      GHB2_LOWER
 UBDSV4 SAVING RECHARGE         ON UNIT   1016 AT TIME STEP      9, STRESS PERIOD      2

 RECHARGE           PERIOD  2   STEP  9
 BOUNDARY      1   LAYER   1   ROW     1   COL     1   RATE     519.792    
 BOUNDARY      2   LAYER   1   ROW     1   COL     2   RATE     519.792    
 BOUNDARY      3   LAYER   1   ROW     1   COL     3   RATE     519.792    
 BOUNDARY      4   LAYER   1   ROW     1   COL     4   RATE     519.792    
 BOUNDARY      5   LAYER   1   ROW     1   COL     5   RATE     519.792    
 BOUNDARY      6   LAYER   1   ROW     1   COL     6   RATE     519.792    
 BOUNDARY      7   LAYER   1   ROW     1   COL     7   RATE     519.792    
 BOUNDARY      8   LAYER   1   ROW     1   COL     8   RATE     519.792    
 BOUNDARY      9   LAYER   1   ROW     1   COL     9   RATE     519.792    
 BOUNDARY     10   LAYER   1   ROW     1   COL    10   RATE     519.792    
 BOUNDARY     11   LAYER   1   ROW     1   COL    11   RATE     519.792    
 BOUNDARY     12   LAYER   1   ROW     1   COL    12   RATE     519.792    
 BOUNDARY     13   LAYER   1   ROW     1   COL    13   RATE     519.792    
 BOUNDARY     14   LAYER   1   ROW     1   COL    14   RATE     519.792    
 BOUNDARY     15   LAYER   1   ROW     1   COL    15   RATE     519.792    
 BOUNDARY     16   LAYER   1   ROW     2   COL     1   RATE     519.792    
 BOUNDARY     17   LAYER   1   ROW     2   COL     2   RATE     519.792    
 BOUNDARY     18   LAYER   1   ROW     2   COL     3   RATE     519.792    
 BOUNDARY     19   LAYER   1   ROW     2   COL     4   RATE     519.792    
 BOUNDARY     20   LAYER   1   ROW     2   COL     5   RATE     519.792    
 BOUNDARY     21   LAYER   1   ROW     2   COL     6   RATE     519.792    
 BOUNDARY     22   LAYER   1   ROW     2   COL     7   RATE     519.792    
 BOUNDARY     23   LAYER   1   ROW     2   COL     8   RATE     519.792    
 BOUNDARY     24   LAYER   1   ROW     2   COL     9   RATE     519.792    
 BOUNDARY     25   LAYER   1   ROW     2   COL    10   RATE     519.792    
 BOUNDARY     26   LAYER   1   ROW     2   COL    11   RATE     519.792    
 BOUNDARY     27   LAYER   1   ROW     2   COL    12   RATE     519.792    
 BOUNDARY     28   LAYER   1   ROW     2   COL    13   RATE     519.792    
 BOUNDARY     29   LAYER   1   ROW     2   COL    14   RATE     519.792    
 BOUNDARY     30   LAYER   1   ROW     2   COL    15   RATE     519.792    
 BOUNDARY     31   LAYER   1   ROW     3   COL     1   RATE     519.792    
 BOUNDARY     32   LAYER   1   ROW     3   COL     2   RATE     519.792    
 BOUNDARY     33   LAYER   1   ROW     3   COL     3   RATE     519.792    
 BOUNDARY     34   LAYER   1   ROW     3   COL     4   RATE     519.792    
 BOUNDARY     35   LAYER   1   ROW     3   COL     5   RATE     519.792    
 BOUNDARY     36   LAYER   1   ROW     3   COL     6   RATE     519.792    
 BOUNDARY     37   LAYER   1   ROW     3   COL     7   RATE     519.792    
 BOUNDARY     38   LAYER   1   ROW     3   COL     8   RATE     519.792    
 BOUNDARY     39   LAYER   1   ROW     3   COL     9   RATE     519.792    
 BOUNDARY     40   LAYER   1   ROW     3   COL    10   RATE     519.792    
 BOUNDARY     41   LAYER   1   ROW     3   COL    11   RATE     519.792    
 BOUNDARY     42   LAYER   1   ROW     3   COL    12   RATE     519.792    
 BOUNDARY     43   LAYER   1   ROW     3   COL    13   RATE     519.792    
 BOUNDARY     44   LAYER   1   ROW     3   COL    14   RATE     519.792    
 BOUNDARY     45   LAYER   1   ROW     3   COL    15   RATE     519.792    
 BOUNDARY     46   LAYER   1   ROW     4   COL     1   RATE     519.792    
 BOUNDARY     47   LAYER   1   ROW     4   COL     2   RATE     519.792    
 BOUNDARY     48   LAYER   1   ROW     4   COL     3   RATE     519.792    
 BOUNDARY     49   LAYER   1   ROW     4   COL     4   RATE     519.792    
 BOUNDARY     50   LAYER   1   ROW     4   COL     5   RATE     519.792    
 BOUNDARY     51   LAYER   1   ROW     4   COL     6   RATE     519.792    
 BOUNDARY     52   LAYER   1   ROW     4   COL     7   RATE     519.792    
 BOUNDARY     53   LAYER   1   ROW     4   COL     8   RATE     519.792    
 BOUNDARY     54   LAYER   1   ROW     4   COL     9   RATE     519.792    
 BOUNDARY     55   LAYER   1   ROW     4   COL    10   RATE     519.792    
 BOUNDARY     56   LAYER   1   ROW     4   COL    11   RATE     519.792    
 BOUNDARY     57   LAYER   1   ROW     4   COL    12   RATE     519.792    
 BOUNDARY     58   LAYER   1   ROW     4   COL    13   RATE     519.792    
 BOUNDARY     59   LAYER   1   ROW     4   COL    14   RATE     519.792    
 BOUNDARY     60   LAYER   1   ROW     4   COL    15   RATE     519.792    
 BOUNDARY     61   LAYER   1   ROW     5   COL     1   RATE     519.792    
 BOUNDARY     62   LAYER   1   ROW     5   COL     2   RATE     519.792    
 BOUNDARY     63   LAYER   1   ROW     5   COL     3   RATE     519.792    
 BOUNDARY     64   LAYER   1   ROW     5   COL     4   RATE     519.792    
 BOUNDARY     65   LAYER   1   ROW     5   COL     5   RATE     519.792    
 BOUNDARY     66   LAYER   1   ROW     5   COL     6   RATE     519.792    
 BOUNDARY     67   LAYER   1   ROW     5   COL     7   RATE     519.792    
 BOUNDARY     68   LAYER   1   ROW     5   COL     8   RATE     519.792    
 BOUNDARY     69   LAYER   1   ROW     5   COL     9   RATE     519.792    
 BOUNDARY     70   LAYER   1   ROW     5   COL    10   RATE     519.792    
 BOUNDARY     71   LAYER   1   ROW     5   COL    11   RATE     519.792    
 BOUNDARY     72   LAYER   1   ROW     5   COL    12   RATE     519.792    
 BOUNDARY     73   LAYER   1   ROW     5   COL    13   RATE     519.792    
 BOUNDARY     74   LAYER   1   ROW     5   COL    14   RATE     519.792    
 BOUNDARY     75   LAYER   1   ROW     5   COL    15   RATE     519.792    
 BOUNDARY     76   LAYER   1   ROW     6   COL     1   RATE     519.792    
 BOUNDARY     77   LAYER   1   ROW     6   COL     2   RATE     519.792    
 BOUNDARY     78   LAYER   1   ROW     6   COL     3   RATE     519.792    
 BOUNDARY     79   LAYER   1   ROW     6   COL     4   RATE     519.792    
 BOUNDARY     80   LAYER   1   ROW     6   COL     5   RATE     519.792    
 BOUNDARY     81   LAYER   1   ROW     6   COL     6   RATE     519.792    
 BOUNDARY     82   LAYER   1   ROW     6   COL     7   RATE     519.792    
 BOUNDARY     83   LAYER   1   ROW     6   COL     8   RATE     519.792    
 BOUNDARY     84   LAYER   1   ROW     6   COL     9   RATE     519.792    
 BOUNDARY     85   LAYER   1   ROW     6   COL    10   RATE     519.792    
 BOUNDARY     86   LAYER   1   ROW     6   COL    11   RATE     519.792    
 BOUNDARY     87   LAYER   1   ROW     6   COL    12   RATE     519.792    
 BOUNDARY     88   LAYER   1   ROW     6   COL    13   RATE     519.792    
 BOUNDARY     89   LAYER   1   ROW     6   COL    14   RATE     519.792    
 BOUNDARY     90   LAYER   1   ROW     6   COL    15   RATE     519.792    
 BOUNDARY     91   LAYER   1   ROW     7   COL     1   RATE     519.792    
 BOUNDARY     92   LAYER   1   ROW     7   COL     2   RATE     519.792    
 BOUNDARY     93   LAYER   1   ROW     7   COL     3   RATE     519.792    
 BOUNDARY     94   LAYER   1   ROW     7   COL     4   RATE     519.792    
 BOUNDARY     95   LAYER   1   ROW     7   COL     5   RATE     519.792    
 BOUNDARY     96   LAYER   1   ROW     7   COL     6   RATE     519.792    
 BOUNDARY     97   LAYER   1   ROW     7   COL     7   RATE     519.792    
 BOUNDARY     98   LAYER   1   ROW     7   COL     8   RATE     519.792    
 BOUNDARY     99   LAYER   1   ROW     7   COL     9   RATE     519.792    
 BOUNDARY    100   LAYER   1   ROW     7   COL    10   RATE     519.792    
 BOUNDARY    101   LAYER   1   ROW     7   COL    11   RATE     519.792    
 BOUNDARY    102   LAYER   1   ROW     7   COL    12   RATE     519.792    
 BOUNDARY    103   LAYER   1   ROW     7   COL    13   RATE     519.792    
 BOUNDARY    104   LAYER   1   ROW     7   COL    14   RATE     519.792    
 BOUNDARY    105   LAYER   1   ROW     7   COL    15   RATE     519.792    
 BOUNDARY    106   LAYER   1   ROW     8   COL     1   RATE     519.792    
 BOUNDARY    107   LAYER   1   ROW     8   COL     2   RATE     519.792    
 BOUNDARY    108   LAYER   1   ROW     8   COL     3   RATE     519.792    
 BOUNDARY    109   LAYER   1   ROW     8   COL     4   RATE     519.792    
 BOUNDARY    110   LAYER   1   ROW     8   COL     5   RATE     519.792    
 BOUNDARY    111   LAYER   1   ROW     8   COL     6   RATE     519.792    
 BOUNDARY    112   LAYER   1   ROW     8   COL     7   RATE     519.792    
 BOUNDARY    113   LAYER   1   ROW     8   COL     8   RATE     519.792    
 BOUNDARY    114   LAYER   1   ROW     8   COL     9   RATE     519.792    
 BOUNDARY    115   LAYER   1   ROW     8   COL    10   RATE     519.792    
 BOUNDARY    116   LAYER   1   ROW     8   COL    11   RATE     519.792    
 BOUNDARY    117   LAYER   1   ROW     8   COL    12   RATE     519.792    
 BOUNDARY    118   LAYER   1   ROW     8   COL    13   RATE     519.792    
 BOUNDARY    119   LAYER   1   ROW     8   COL    14   RATE     519.792    
 BOUNDARY    120   LAYER   1   ROW     8   COL    15   RATE     519.792    
 BOUNDARY    121   LAYER   1   ROW     9   COL     1   RATE     519.792    
 BOUNDARY    122   LAYER   1   ROW     9   COL     2   RATE     519.792    
 BOUNDARY    123   LAYER   1   ROW     9   COL     3   RATE     519.792    
 BOUNDARY    124   LAYER   1   ROW     9   COL     4   RATE     519.792    
 BOUNDARY    125   LAYER   1   ROW     9   COL     5   RATE     519.792    
 BOUNDARY    126   LAYER   1   ROW     9   COL     6   RATE     519.792    
 BOUNDARY    127   LAYER   1   ROW     9   COL     7   RATE     519.792    
 BOUNDARY    128   LAYER   1   ROW     9   COL     8   RATE     519.792    
 BOUNDARY    129   LAYER   1   ROW     9   COL     9   RATE     519.792    
 BOUNDARY    130   LAYER   1   ROW     9   COL    10   RATE     519.792    
 BOUNDARY    131   LAYER   1   ROW     9   COL    11   RATE     519.792    
 BOUNDARY    132   LAYER   1   ROW     9   COL    12   RATE     519.792    
 BOUNDARY    133   LAYER   1   ROW     9   COL    13   RATE     519.792    
 BOUNDARY    134   LAYER   1   ROW     9   COL    14   RATE     519.792    
 BOUNDARY    135   LAYER   1   ROW     9   COL    15   RATE     519.792    
 BOUNDARY    136   LAYER   1   ROW    10   COL     1   RATE     519.792    
 BOUNDARY    137   LAYER   1   ROW    10   COL     2   RATE     519.792    
 BOUNDARY    138   LAYER   1   ROW    10   COL     3   RATE     519.792    
 BOUNDARY    139   LAYER   1   ROW    10   COL     4   RATE     519.792    
 BOUNDARY    140   LAYER   1   ROW    10   COL     5   RATE     519.792    
 BOUNDARY    141   LAYER   1   ROW    10   COL     6   RATE     519.792    
 BOUNDARY    142   LAYER   1   ROW    10   COL     7   RATE     519.792    
 BOUNDARY    143   LAYER   1   ROW    10   COL     8   RATE     519.792    
 BOUNDARY    144   LAYER   1   ROW    10   COL     9   RATE     519.792    
 BOUNDARY    145   LAYER   1   ROW    10   COL    10   RATE     519.792    
 BOUNDARY    146   LAYER   1   ROW    10   COL    11   RATE     519.792    
 BOUNDARY    147   LAYER   1   ROW    10   COL    12   RATE     519.792    
 BOUNDARY    148   LAYER   1   ROW    10   COL    13   RATE     519.792    
 BOUNDARY    149   LAYER   1   ROW    10   COL    14   RATE     519.792    
 BOUNDARY    150   LAYER   1   ROW    10   COL    15   RATE     519.792    
 UBDSV4 SAVING ET SEGS          ON UNIT   1016 AT TIME STEP      9, STRESS PERIOD      2

 ET SEGS            PERIOD  2   STEP  9
 BOUNDARY      1   LAYER   1   ROW     1   COL     1   RATE    -1.59552    
 BOUNDARY      2   LAYER   1   ROW     1   COL     2   RATE    -6.87170    
 BOUNDARY      3   LAYER   1   ROW     1   COL     3   RATE    -36.8837    
 BOUNDARY      4   LAYER   1   ROW     1   COL     4   RATE    -76.9792    
 BOUNDARY      5   LAYER   1   ROW     1   COL     5   RATE    -76.9792    
 BOUNDARY      6   LAYER   1   ROW     1   COL     6   RATE    -76.9792    
 BOUNDARY      7   LAYER   1   ROW     1   COL     7   RATE    -76.9792    
 BOUNDARY      8   LAYER   1   ROW     1   COL     8   RATE    -76.9792    
 BOUNDARY      9   LAYER   1   ROW     1   COL     9   RATE    -76.9792    
 BOUNDARY     10   LAYER   1   ROW     1   COL    10   RATE    -76.9792    
 BOUNDARY     11   LAYER   1   ROW     1   COL    11   RATE    -76.9792    
 BOUNDARY     12   LAYER   1   ROW     1   COL    12   RATE    -12.7263    
 BOUNDARY     13   LAYER   1   ROW     1   COL    13   RATE     0.00000    
 BOUNDARY     14   LAYER   1   ROW     1   COL    14   RATE     0.00000    
 BOUNDARY     15   LAYER   1   ROW     1   COL    15   RATE     0.00000    
 BOUNDARY     16   LAYER   1   ROW     2   COL     1   RATE     0.00000    
 BOUNDARY     17   LAYER   1   ROW     2   COL     2   RATE    -3.39532    
 BOUNDARY     18   LAYER   1   ROW     2   COL     3   RATE    -21.5789    
 BOUNDARY     19   LAYER   1   ROW     2   COL     4   RATE    -76.9792    
 BOUNDARY     20   LAYER   1   ROW     2   COL     5   RATE    -76.9792    
 BOUNDARY     21   LAYER   1   ROW     2   COL     6   RATE    -76.9792    
 BOUNDARY     22   LAYER   1   ROW     2   COL     7   RATE    -76.9792    
 BOUNDARY     23   LAYER   1   ROW     2   COL     8   RATE    -76.9792    
 BOUNDARY     24   LAYER   1   ROW     2   COL     9   RATE    -76.9792    
 BOUNDARY     25   LAYER   1   ROW     2   COL    10   RATE    -76.9792    
 BOUNDARY     26   LAYER   1   ROW     2   COL    11   RATE    -76.9792    
 BOUNDARY     27   LAYER   1   ROW     2   COL    12   RATE    -14.0662    
 BOUNDARY     28   LAYER   1   ROW     2   COL    13   RATE   -4.478847E-03
 BOUNDARY     29   LAYER   1   ROW     2   COL    14   RATE     0.00000    
 BOUNDARY     30   LAYER   1   ROW     2   COL    15   RATE     0.00000    
 BOUNDARY     31   LAYER   1   ROW     3   COL     1   RATE     0.00000    
 BOUNDARY     32   LAYER   1   ROW     3   COL     2   RATE     0.00000    
 BOUNDARY     33   LAYER   1   ROW     3   COL     3   RATE    -16.9662    
 BOUNDARY     34   LAYER   1   ROW     3   COL     4   RATE    -76.9792    
 BOUNDARY     35   LAYER   1   ROW     3   COL     5   RATE    -76.9792    
 BOUNDARY     36   LAYER   1   ROW     3   COL     6   RATE    -76.9792    
 BOUNDARY     37   LAYER   1   ROW     3   COL     7   RATE    -76.9792    
 BOUNDARY     38   LAYER   1   ROW     3   COL     8   RATE    -76.9792    
 BOUNDARY     39   LAYER   1   ROW     3   COL     9   RATE    -76.9792    
 BOUNDARY     40   LAYER   1   ROW     3   COL    10   RATE    -76.9792    
 BOUNDARY     41   LAYER   1   ROW     3   COL    11   RATE    -76.9792    
 BOUNDARY     42   LAYER   1   ROW     3   COL    12   RATE    -16.3262    
 BOUNDARY     43   LAYER   1   ROW     3   COL    13   RATE    -1.38054    
 BOUNDARY     44   LAYER   1   ROW     3   COL    14   RATE     0.00000    
 BOUNDARY     45   LAYER   1   ROW     3   COL    15   RATE     0.00000    
 BOUNDARY     46   LAYER   1   ROW     4   COL     1   RATE     0.00000    
 BOUNDARY     47   LAYER   1   ROW     4   COL     2   RATE    -2.22971    
 BOUNDARY     48   LAYER   1   ROW     4   COL     3   RATE    -19.9428    
 BOUNDARY     49   LAYER   1   ROW     4   COL     4   RATE    -76.9792    
 BOUNDARY     50   LAYER   1   ROW     4   COL     5   RATE    -76.9792    
 BOUNDARY     51   LAYER   1   ROW     4   COL     6   RATE    -76.9792    
 BOUNDARY     52   LAYER   1   ROW     4   COL     7   RATE    -76.9792    
 BOUNDARY     53   LAYER   1   ROW     4   COL     8   RATE    -76.9792    
 BOUNDARY     54   LAYER   1   ROW     4   COL     9   RATE    -76.9792    
 BOUNDARY     55   LAYER   1   ROW     4   COL    10   RATE    -76.9792    
 BOUNDARY     56   LAYER   1   ROW     4   COL    11   RATE    -76.9792    
 BOUNDARY     57   LAYER   1   ROW     4   COL    12   RATE    -18.4836    
 BOUNDARY     58   LAYER   1   ROW     4   COL    13   RATE    -2.50945    
 BOUNDARY     59   LAYER   1   ROW     4   COL    14   RATE     0.00000    
 BOUNDARY     60   LAYER   1   ROW     4   COL    15   RATE     0.00000    
 BOUNDARY     61   LAYER   1   ROW     5   COL     1   RATE     0.00000    
 BOUNDARY     62   LAYER   1   ROW     5   COL     2   RATE    -4.51887    
 BOUNDARY     63   LAYER   1   ROW     5   COL     3   RATE    -23.0139    
 BOUNDARY     64   LAYER   1   ROW     5   COL     4   RATE    -76.9792    
 BOUNDARY     65   LAYER   1   ROW     5   COL     5   RATE    -76.9792    
 BOUNDARY     66   LAYER   1   ROW     5   COL     6   RATE    -76.9792    
 BOUNDARY     67   LAYER   1   ROW     5   COL     7   RATE    -76.9792    
 BOUNDARY     68   LAYER   1   ROW     5   COL     8   RATE    -76.9792    
 BOUNDARY     69   LAYER   1   ROW     5   COL     9   RATE    -76.9792    
 BOUNDARY     70   LAYER   1   ROW     5   COL    10   RATE    -76.9792    
 BOUNDARY     71   LAYER   1   ROW     5   COL    11   RATE    -76.9792    
 BOUNDARY     72   LAYER   1   ROW     5   COL    12   RATE    -19.9797    
 BOUNDARY     73   LAYER   1   ROW     5   COL    13   RATE    -3.21770    
 BOUNDARY     74   LAYER   1   ROW     5   COL    14   RATE     0.00000    
 BOUNDARY     75   LAYER   1   ROW     5   COL    15   RATE     0.00000    
 BOUNDARY     76   LAYER   1   ROW     6   COL     1   RATE     0.00000    
 BOUNDARY     77   LAYER   1   ROW     6   COL     2   RATE    -3.41945    
 BOUNDARY     78   LAYER   1   ROW     6   COL     3   RATE    -25.6614    
 BOUNDARY     79   LAYER   1   ROW     6   COL     4   RATE    -76.9792    
 BOUNDARY     80   LAYER   1   ROW     6   COL     5   RATE    -76.9792    
 BOUNDARY     81   LAYER   1   ROW     6   COL     6   RATE    -76.9792    
 BOUNDARY     82   LAYER   1   ROW     6   COL     7   RATE    -76.9792    
 BOUNDARY     83   LAYER   1   ROW     6   COL     8   RATE    -76.9792    
 BOUNDARY     84   LAYER   1   ROW     6   COL     9   RATE    -76.9792    
 BOUNDARY     85   LAYER   1   ROW     6   COL    10   RATE    -76.9792    
 BOUNDARY     86   LAYER   1   ROW     6   COL    11   RATE    -76.9792    
 BOUNDARY     87   LAYER   1   ROW     6   COL    12   RATE    -20.4798    
 BOUNDARY     88   LAYER   1   ROW     6   COL    13   RATE    -3.18684    
 BOUNDARY     89   LAYER   1   ROW     6   COL    14   RATE     0.00000    
 BOUNDARY     90   LAYER   1   ROW     6   COL    15   RATE     0.00000    
 BOUNDARY     91   LAYER   1   ROW     7   COL     1   RATE     0.00000    
 BOUNDARY     92   LAYER   1   ROW     7   COL     2   RATE   -0.730746    
 BOUNDARY     93   LAYER   1   ROW     7   COL     3   RATE    -30.9818    
 BOUNDARY     94   LAYER   1   ROW     7   COL     4   RATE    -76.9792    
 BOUNDARY     95   LAYER   1   ROW     7   COL     5   RATE    -76.9792    
 BOUNDARY     96   LAYER   1   ROW     7   COL     6   RATE    -76.9792    
 BOUNDARY     97   LAYER   1   ROW     7   COL     7   RATE    -76.9792    
 BOUNDARY     98   LAYER   1   ROW     7   COL     8   RATE    -76.9792    
 BOUNDARY     99   LAYER   1   ROW     7   COL     9   RATE    -76.9792    
 BOUNDARY    100   LAYER   1   ROW     7   COL    10   RATE    -76.9792    
 BOUNDARY    101   LAYER   1   ROW     7   COL    11   RATE    -76.9792    
 BOUNDARY    102   LAYER   1   ROW     7   COL    12   RATE    -20.3524    
 BOUNDARY    103   LAYER   1   ROW     7   COL    13   RATE    -2.61848    
 BOUNDARY    104   LAYER   1   ROW     7   COL    14   RATE     0.00000    
 BOUNDARY    105   LAYER   1   ROW     7   COL    15   RATE     0.00000    
 BOUNDARY    106   LAYER   1   ROW     8   COL     1   RATE     0.00000    
 BOUNDARY    107   LAYER   1   ROW     8   COL     2   RATE    -8.48780    
 BOUNDARY    108   LAYER   1   ROW     8   COL     3   RATE    -76.9792    
 BOUNDARY    109   LAYER   1   ROW     8   COL     4   RATE    -76.9792    
 BOUNDARY    110   LAYER   1   ROW     8   COL     5   RATE    -76.9792    
 BOUNDARY    111   LAYER   1   ROW     8   COL     6   RATE    -76.9792    
 BOUNDARY    112   LAYER   1   ROW     8   COL     7   RATE    -76.9792    
 BOUNDARY    113   LAYER   1   ROW     8   COL     8   RATE    -76.9792    
 BOUNDARY    114   LAYER   1   ROW     8   COL     9   RATE    -76.9792    
 BOUNDARY    115   LAYER   1   ROW     8   COL    10   RATE    -76.9792    
 BOUNDARY    116   LAYER   1   ROW     8   COL    11   RATE    -76.9792    
 BOUNDARY    117   LAYER   1   ROW     8   COL    12   RATE    -20.6490    
 BOUNDARY    118   LAYER   1   ROW     8   COL    13   RATE    -2.61757    
 BOUNDARY    119   LAYER   1   ROW     8   COL    14   RATE     0.00000    
 BOUNDARY    120   LAYER   1   ROW     8   COL    15   RATE     0.00000    
 BOUNDARY    121   LAYER   1   ROW     9   COL     1   RATE    -14.3238    
 BOUNDARY    122   LAYER   1   ROW     9   COL     2   RATE    -45.7075    
 BOUNDARY    123   LAYER   1   ROW     9   COL     3   RATE    -76.9792    
 BOUNDARY    124   LAYER   1   ROW     9   COL     4   RATE    -76.9792    
 BOUNDARY    125   LAYER   1   ROW     9   COL     5   RATE    -76.9792    
 BOUNDARY    126   LAYER   1   ROW     9   COL     6   RATE    -76.9792    
 BOUNDARY    127   LAYER   1   ROW     9   COL     7   RATE    -76.9792    
 BOUNDARY    128   LAYER   1   ROW     9   COL     8   RATE    -76.9792    
 BOUNDARY    129   LAYER   1   ROW     9   COL     9   RATE    -76.9792    
 BOUNDARY    130   LAYER   1   ROW     9   COL    10   RATE    -76.9792    
 BOUNDARY    131   LAYER   1   ROW     9   COL    11   RATE    -76.9792    
 BOUNDARY    132   LAYER   1   ROW     9   COL    12   RATE    -21.4913    
 BOUNDARY    133   LAYER   1   ROW     9   COL    13   RATE    -3.24180    
 BOUNDARY    134   LAYER   1   ROW     9   COL    14   RATE     0.00000    
 BOUNDARY    135   LAYER   1   ROW     9   COL    15   RATE     0.00000    
 BOUNDARY    136   LAYER   1   ROW    10   COL     1   RATE    -52.0468    
 BOUNDARY    137   LAYER   1   ROW    10   COL     2   RATE    -76.9792    
 BOUNDARY    138   LAYER   1   ROW    10   COL     3   RATE    -76.9792    
 BOUNDARY    139   LAYER   1   ROW    10   COL     4   RATE    -76.9792    
 BOUNDARY    140   LAYER   1   ROW    10   COL     5   RATE    -76.9792    
 BOUNDARY    141   LAYER   1   ROW    10   COL     6   RATE    -76.9792    
 BOUNDARY    142   LAYER   1   ROW    10   COL     7   RATE    -76.9792    
 BOUNDARY    143   LAYER   1   ROW    10   COL     8   RATE    -76.9792    
 BOUNDARY    144   LAYER   1   ROW    10   COL     9   RATE    -76.9792    
 BOUNDARY    145   LAYER   1   ROW    10   COL    10   RATE    -76.9792    
 BOUNDARY    146   LAYER   1   ROW    10   COL    11   RATE    -76.9792    
 BOUNDARY    147   LAYER   1   ROW    10   COL    12   RATE    -22.1027    
 BOUNDARY    148   LAYER   1   ROW    10   COL    13   RATE    -3.64578    
 BOUNDARY    149   LAYER   1   ROW    10   COL    14   RATE     0.00000    
 BOUNDARY    150   LAYER   1   ROW    10   COL    15   RATE     0.00000    

 HEAD WILL BE SAVED ON UNIT 1017 AT END OF TIME STEP    9, STRESS PERIOD    2
WEL   no.    1 value from time series:   0.0000     for time: 10.000     to  11.00    
WEL   no.    2 value from time series:   0.0000     for time: 10.000     to  11.00    
RIV   no.    1 value from time series:   101.25     for time: 10.000     to  11.00    
RIV   no.    2 value from time series:   101.25     for time: 10.000     to  11.00    
RIV   no.    3 value from time series:   111.72     for time: 10.000     to  11.00    
RIV   no.    4 value from time series:   111.72     for time: 10.000     to  11.00    
RIV   no.    5 value from time series:   115.12     for time: 10.000     to  11.00    
RIV   no.    6 value from time series:   115.12     for time: 10.000     to  11.00    
RIV   no.    7 value from time series:   104.03     for time: 10.000     to  11.00    
RIV   no.    8 value from time series:   104.03     for time: 10.000     to  11.00    
RIV   no.    9 value from time series:   114.40     for time: 10.000     to  11.00    
RIV   no.   10 value from time series:   114.40     for time: 10.000     to  11.00    
WEL   no.    1 value from time series:   0.0000     for time: 10.000     to  11.00    
WEL   no.    2 value from time series:   0.0000     for time: 10.000     to  11.00    
RIV   no.    1 value from time series:   101.25     for time: 10.000     to  11.00    
RIV   no.    2 value from time series:   101.25     for time: 10.000     to  11.00    
RIV   no.    3 value from time series:   111.72     for time: 10.000     to  11.00    
RIV   no.    4 value from time series:   111.72     for time: 10.000     to  11.00    
RIV   no.    5 value from time series:   115.12     for time: 10.000     to  11.00    
RIV   no.    6 value from time series:   115.12     for time: 10.000     to  11.00    
RIV   no.    7 value from time series:   104.03     for time: 10.000     to  11.00    
RIV   no.    8 value from time series:   104.03     for time: 10.000     to  11.00    
RIV   no.    9 value from time series:   114.40     for time: 10.000     to  11.00    
RIV   no.   10 value from time series:   114.40     for time: 10.000     to  11.00    

 OUTPUT CONTROL FOR STRESS PERIOD    2   TIME STEP   10
    SAVE BUDGET
    SAVE HEAD
    SAVE HEAD FOR ALL LAYERS
 UBDSV1 SAVING          STORAGE ON UNIT   1016 AT TIME STEP     10, STRESS PERIOD      2
 UBDSV1 SAVING FLOW RIGHT FACE  ON UNIT   1016 AT TIME STEP     10, STRESS PERIOD      2
 UBDSV1 SAVING FLOW FRONT FACE  ON UNIT   1016 AT TIME STEP     10, STRESS PERIOD      2
 UBDSV1 SAVING FLOW LOWER FACE  ON UNIT   1016 AT TIME STEP     10, STRESS PERIOD      2
 UBDSV4 SAVING WELLS NEAR RIVER ON UNIT   1016 AT TIME STEP     10, STRESS PERIOD      2

 WELLS NEAR RIVER   PERIOD  2   STEP 10
 BOUNDARY      1   LAYER   2   ROW     3   COL     4   RATE     0.00000      WELL_1
 BOUNDARY      2   LAYER   2   ROW     8   COL     4   RATE     0.00000      WELL_2
 BOUNDARY      3   LAYER   2   ROW     4   COL     6   RATE   -10.00000    
 BOUNDARY      4   LAYER   2   ROW     5   COL     8   RATE    -20.0000    
 BOUNDARY      5   LAYER   2   ROW     2   COL     9   RATE    -40.0000    
 UBDSV4 SAVING RIVER            ON UNIT   1016 AT TIME STEP     10, STRESS PERIOD      2

 RIVER              PERIOD  2   STEP 10
 BOUNDARY      1   LAYER   1   ROW     1   COL    15   RATE    -4946.55    
 BOUNDARY      2   LAYER   1   ROW     2   COL    15   RATE    -6039.40      RIV2
 BOUNDARY      3   LAYER   1   ROW     3   COL    15   RATE    -2070.00      RIV3
 BOUNDARY      4   LAYER   1   ROW     4   COL    15   RATE    -3540.63    
 BOUNDARY      5   LAYER   1   ROW     5   COL    15   RATE    -2394.02    
 BOUNDARY      6   LAYER   1   ROW     6   COL    15   RATE    -1769.79    
 BOUNDARY      7   LAYER   1   ROW     7   COL    15   RATE    -6332.60      RIVX
 BOUNDARY      8   LAYER   1   ROW     8   COL    15   RATE    -6118.97      RIVX
 BOUNDARY      9   LAYER   1   ROW     9   COL    15   RATE    -1309.35      RIVX
 BOUNDARY     10   LAYER   1   ROW    10   COL    15   RATE    -2164.06    

 GHB LAKES          PERIOD  2   STEP 10
 BOUNDARY      1   LAYER   1   ROW     3   COL     1   RATE    -14420.3    
 BOUNDARY      2   LAYER   1   ROW     7   COL     1   RATE    -1818.46      GHB2_UPPER
 BOUNDARY      3   LAYER   1   ROW     7   COL     1   RATE    -13201.1      GHB2_LOWER
 UBDSV4 SAVING RECHARGE         ON UNIT   1016 AT TIME STEP     10, STRESS PERIOD      2

 RECHARGE           PERIOD  2   STEP 10
 BOUNDARY      1   LAYER   1   ROW     1   COL     1   RATE     521.875    
 BOUNDARY      2   LAYER   1   ROW     1   COL     2   RATE     521.875    
 BOUNDARY      3   LAYER   1   ROW     1   COL     3   RATE     521.875    
 BOUNDARY      4   LAYER   1   ROW     1   COL     4   RATE     521.875    
 BOUNDARY      5   LAYER   1   ROW     1   COL     5   RATE     521.875    
 BOUNDARY      6   LAYER   1   ROW     1   COL     6   RATE     521.875    
 BOUNDARY      7   LAYER   1   ROW     1   COL     7   RATE     521.875    
 BOUNDARY      8   LAYER   1   ROW     1   COL     8   RATE     521.875    
 BOUNDARY      9   LAYER   1   ROW     1   COL     9   RATE     521.875    
 BOUNDARY     10   LAYER   1   ROW     1   COL    10   RATE     521.875    
 BOUNDARY     11   LAYER   1   ROW     1   COL    11   RATE     521.875    
 BOUNDARY     12   LAYER   1   ROW     1   COL    12   RATE     521.875    
 BOUNDARY     13   LAYER   1   ROW     1   COL    13   RATE     521.875    
 BOUNDARY     14   LAYER   1   ROW     1   COL    14   RATE     521.875    
 BOUNDARY     15   LAYER   1   ROW     1   COL    15   RATE     521.875    
 BOUNDARY     16   LAYER   1   ROW     2   COL     1   RATE     521.875    
 BOUNDARY     17   LAYER   1   ROW     2   COL     2   RATE     521.875    
 BOUNDARY     18   LAYER   1   ROW     2   COL     3   RATE     521.875    
 BOUNDARY     19   LAYER   1   ROW     2   COL     4   RATE     521.875    
 BOUNDARY     20   LAYER   1   ROW     2   COL     5   RATE     521.875    
 BOUNDARY     21   LAYER   1   ROW     2   COL     6   RATE     521.875    
 BOUNDARY     22   LAYER   1   ROW     2   COL     7   RATE     521.875    
 BOUNDARY     23   LAYER   1   ROW     2   COL     8   RATE     521.875    
 BOUNDARY     24   LAYER   1   ROW     2   COL     9   RATE     521.875    
 BOUNDARY     25   LAYER   1   ROW     2   COL    10   RATE     521.875    
 BOUNDARY     26   LAYER   1   ROW     2   COL    11   RATE     521.875    
 BOUNDARY     27   LAYER   1   ROW     2   COL    12   RATE     521.875    
 BOUNDARY     28   LAYER   1   ROW     2   COL    13   RATE     521.875    
 BOUNDARY     29   LAYER   1   ROW     2   COL    14   RATE     521.875    
 BOUNDARY     30   LAYER   1   ROW     2   COL    15   RATE     521.875    
 BOUNDARY     31   LAYER   1   ROW     3   COL     1   RATE     521.875    
 BOUNDARY     32   LAYER   1   ROW     3   COL     2   RATE     521.875    
 BOUNDARY     33   LAYER   1   ROW     3   COL     3   RATE     521.875    
 BOUNDARY     34   LAYER   1   ROW     3   COL     4   RATE     521.875    
 BOUNDARY     35   LAYER   1   ROW     3   COL     5   RATE     521.875    
 BOUNDARY     36   LAYER   1   ROW     3   COL     6   RATE     521.875    
 BOUNDARY     37   LAYER   1   ROW     3   COL     7   RATE     521.875    
 BOUNDARY     38   LAYER   1   ROW     3   COL     8   RATE     521.875    
 BOUNDARY     39   LAYER   1   ROW     3   COL     9   RATE     521.875    
 BOUNDARY     40   LAYER   1   ROW     3   COL    10   RATE     521.875    
 BOUNDARY     41   LAYER   1   ROW     3   COL    11   RATE     521.875    
 BOUNDARY     42   LAYER   1   ROW     3   COL    12   RATE     521.875    
 BOUNDARY     43   LAYER   1   ROW     3   COL    13   RATE     521.875    
 BOUNDARY     44   LAYER   1   ROW     3   COL    14   RATE     521.875    
 BOUNDARY     45   LAYER   1   ROW     3   COL    15   RATE     521.875    
 BOUNDARY     46   LAYER   1   ROW     4   COL     1   RATE     521.875    
 BOUNDARY     47   LAYER   1   ROW     4   COL     2   RATE     521.875    
 BOUNDARY     48   LAYER   1   ROW     4   COL     3   RATE     521.875    
 BOUNDARY     49   LAYER   1   ROW     4   COL     4   RATE     521.875    
 BOUNDARY     50   LAYER   1   ROW     4   COL     5   RATE     521.875    
 BOUNDARY     51   LAYER   1   ROW     4   COL     6   RATE     521.875    
 BOUNDARY     52   LAYER   1   ROW     4   COL     7   RATE     521.875    
 BOUNDARY     53   LAYER   1   ROW     4   COL     8   RATE     521.875    
 BOUNDARY     54   LAYER   1   ROW     4   COL     9   RATE     521.875    
 BOUNDARY     55   LAYER   1   ROW     4   COL    10   RATE     521.875    
 BOUNDARY     56   LAYER   1   ROW     4   COL    11   RATE     521.875    
 BOUNDARY     57   LAYER   1   ROW     4   COL    12   RATE     521.875    
 BOUNDARY     58   LAYER   1   ROW     4   COL    13   RATE     521.875    
 BOUNDARY     59   LAYER   1   ROW     4   COL    14   RATE     521.875    
 BOUNDARY     60   LAYER   1   ROW     4   COL    15   RATE     521.875    
 BOUNDARY     61   LAYER   1   ROW     5   COL     1   RATE     521.875    
 BOUNDARY     62   LAYER   1   ROW     5   COL     2   RATE     521.875    
 BOUNDARY     63   LAYER   1   ROW     5   COL     3   RATE     521.875    
 BOUNDARY     64   LAYER   1   ROW     5   COL     4   RATE     521.875    
 BOUNDARY     65   LAYER   1   ROW     5   COL     5   RATE     521.875    
 BOUNDARY     66   LAYER   1   ROW     5   COL     6   RATE     521.875    
 BOUNDARY     67   LAYER   1   ROW     5   COL     7   RATE     521.875    
 BOUNDARY     68   LAYER   1   ROW     5   COL     8   RATE     521.875    
 BOUNDARY     69   LAYER   1   ROW     5   COL     9   RATE     521.875    
 BOUNDARY     70   LAYER   1   ROW     5   COL    10   RATE     521.875    
 BOUNDARY     71   LAYER   1   ROW     5   COL    11   RATE     521.875    
 BOUNDARY     72   LAYER   1   ROW     5   COL    12   RATE     521.875    
 BOUNDARY     73   LAYER   1   ROW     5   COL    13   RATE     521.875    
 BOUNDARY     74   LAYER   1   ROW     5   COL    14   RATE     521.875    
 BOUNDARY     75   LAYER   1   ROW     5   COL    15   RATE     521.875    
 BOUNDARY     76   LAYER   1   ROW     6   COL     1   RATE     521.875    
 BOUNDARY     77   LAYER   1   ROW     6   COL     2   RATE     521.875    
 BOUNDARY     78   LAYER   1   ROW     6   COL     3   RATE     521.875    
 BOUNDARY     79   LAYER   1   ROW     6   COL     4   RATE     521.875    
 BOUNDARY     80   LAYER   1   ROW     6   COL     5   RATE     521.875    
 BOUNDARY     81   LAYER   1   ROW     6   COL     6   RATE     521.875    
 BOUNDARY     82   LAYER   1   ROW     6   COL     7   RATE     521.875    
 BOUNDARY     83   LAYER   1   ROW     6   COL     8   RATE     521.875    
 BOUNDARY     84   LAYER   1   ROW     6   COL     9   RATE     521.875    
 BOUNDARY     85   LAYER   1   ROW     6   COL    10   RATE     521.875    
 BOUNDARY     86   LAYER   1   ROW     6   COL    11   RATE     521.875    
 BOUNDARY     87   LAYER   1   ROW     6   COL    12   RATE     521.875    
 BOUNDARY     88   LAYER   1   ROW     6   COL    13   RATE     521.875    
 BOUNDARY     89   LAYER   1   ROW     6   COL    14   RATE     521.875    
 BOUNDARY     90   LAYER   1   ROW     6   COL    15   RATE     521.875    
 BOUNDARY     91   LAYER   1   ROW     7   COL     1   RATE     521.875    
 BOUNDARY     92   LAYER   1   ROW     7   COL     2   RATE     521.875    
 BOUNDARY     93   LAYER   1   ROW     7   COL     3   RATE     521.875    
 BOUNDARY     94   LAYER   1   ROW     7   COL     4   RATE     521.875    
 BOUNDARY     95   LAYER   1   ROW     7   COL     5   RATE     521.875    
 BOUNDARY     96   LAYER   1   ROW     7   COL     6   RATE     521.875    
 BOUNDARY     97   LAYER   1   ROW     7   COL     7   RATE     521.875    
 BOUNDARY     98   LAYER   1   ROW     7   COL     8   RATE     521.875    
 BOUNDARY     99   LAYER   1   ROW     7   COL     9   RATE     521.875    
 BOUNDARY    100   LAYER   1   ROW     7   COL    10   RATE     521.875    
 BOUNDARY    101   LAYER   1   ROW     7   COL    11   RATE     521.875    
 BOUNDARY    102   LAYER   1   ROW     7   COL    12   RATE     521.875    
 BOUNDARY    103   LAYER   1   ROW     7   COL    13   RATE     521.875    
 BOUNDARY    104   LAYER   1   ROW     7   COL    14   RATE     521.875    
 BOUNDARY    105   LAYER   1   ROW     7   COL    15   RATE     521.875    
 BOUNDARY    106   LAYER   1   ROW     8   COL     1   RATE     521.875    
 BOUNDARY    107   LAYER   1   ROW     8   COL     2   RATE     521.875    
 BOUNDARY    108   LAYER   1   ROW     8   COL     3   RATE     521.875    
 BOUNDARY    109   LAYER   1   ROW     8   COL     4   RATE     521.875    
 BOUNDARY    110   LAYER   1   ROW     8   COL     5   RATE     521.875    
 BOUNDARY    111   LAYER   1   ROW     8   COL     6   RATE     521.875    
 BOUNDARY    112   LAYER   1   ROW     8   COL     7   RATE     521.875    
 BOUNDARY    113   LAYER   1   ROW     8   COL     8   RATE     521.875    
 BOUNDARY    114   LAYER   1   ROW     8   COL     9   RATE     521.875    
 BOUNDARY    115   LAYER   1   ROW     8   COL    10   RATE     521.875    
 BOUNDARY    116   LAYER   1   ROW     8   COL    11   RATE     521.875    
 BOUNDARY    117   LAYER   1   ROW     8   COL    12   RATE     521.875    
 BOUNDARY    118   LAYER   1   ROW     8   COL    13   RATE     521.875    
 BOUNDARY    119   LAYER   1   ROW     8   COL    14   RATE     521.875    
 BOUNDARY    120   LAYER   1   ROW     8   COL    15   RATE     521.875    
 BOUNDARY    121   LAYER   1   ROW     9   COL     1   RATE     521.875    
 BOUNDARY    122   LAYER   1   ROW     9   COL     2   RATE     521.875    
 BOUNDARY    123   LAYER   1   ROW     9   COL     3   RATE     521.875    
 BOUNDARY    124   LAYER   1   ROW     9   COL     4   RATE     521.875    
 BOUNDARY    125   LAYER   1   ROW     9   COL     5   RATE     521.875    
 BOUNDARY    126   LAYER   1   ROW     9   COL     6   RATE     521.875    
 BOUNDARY    127   LAYER   1   ROW     9   COL     7   RATE     521.875    
 BOUNDARY    128   LAYER   1   ROW     9   COL     8   RATE     521.875    
 BOUNDARY    129   LAYER   1   ROW     9   COL     9   RATE     521.875    
 BOUNDARY    130   LAYER   1   ROW     9   COL    10   RATE     521.875    
 BOUNDARY    131   LAYER   1   ROW     9   COL    11   RATE     521.875    
 BOUNDARY    132   LAYER   1   ROW     9   COL    12   RATE     521.875    
 BOUNDARY    133   LAYER   1   ROW     9   COL    13   RATE     521.875    
 BOUNDARY    134   LAYER   1   ROW     9   COL    14   RATE     521.875    
 BOUNDARY    135   LAYER   1   ROW     9   COL    15   RATE     521.875    
 BOUNDARY    136   LAYER   1   ROW    10   COL     1   RATE     521.875    
 BOUNDARY    137   LAYER   1   ROW    10   COL     2   RATE     521.875    
 BOUNDARY    138   LAYER   1   ROW    10   COL     3   RATE     521.875    
 BOUNDARY    139   LAYER   1   ROW    10   COL     4   RATE     521.875    
 BOUNDARY    140   LAYER   1   ROW    10   COL     5   RATE     521.875    
 BOUNDARY    141   LAYER   1   ROW    10   COL     6   RATE     521.875    
 BOUNDARY    142   LAYER   1   ROW    10   COL     7   RATE     521.875    
 BOUNDARY    143   LAYER   1   ROW    10   COL     8   RATE     521.875    
 BOUNDARY    144   LAYER   1   ROW    10   COL     9   RATE     521.875    
 BOUNDARY    145   LAYER   1   ROW    10   COL    10   RATE     521.875    
 BOUNDARY    146   LAYER   1   ROW    10   COL    11   RATE     521.875    
 BOUNDARY    147   LAYER   1   ROW    10   COL    12   RATE     521.875    
 BOUNDARY    148   LAYER   1   ROW    10   COL    13   RATE     521.875    
 BOUNDARY    149   LAYER   1   ROW    10   COL    14   RATE     521.875    
 BOUNDARY    150   LAYER   1   ROW    10   COL    15   RATE     521.875    
 UBDSV4 SAVING ET SEGS          ON UNIT   1016 AT TIME STEP     10, STRESS PERIOD      2

 ET SEGS            PERIOD  2   STEP 10
 BOUNDARY      1   LAYER   1   ROW     1   COL     1   RATE    -1.60115    
 BOUNDARY      2   LAYER   1   ROW     1   COL     2   RATE    -6.89175    
 BOUNDARY      3   LAYER   1   ROW     1   COL     3   RATE    -37.0173    
 BOUNDARY      4   LAYER   1   ROW     1   COL     4   RATE    -77.1875    
 BOUNDARY      5   LAYER   1   ROW     1   COL     5   RATE    -77.1875    
 BOUNDARY      6   LAYER   1   ROW     1   COL     6   RATE    -77.1875    
 BOUNDARY      7   LAYER   1   ROW     1   COL     7   RATE    -77.1875    
 BOUNDARY      8   LAYER   1   ROW     1   COL     8   RATE    -77.1875    
 BOUNDARY      9   LAYER   1   ROW     1   COL     9   RATE    -77.1875    
 BOUNDARY     10   LAYER   1   ROW     1   COL    10   RATE    -77.1875    
 BOUNDARY     11   LAYER   1   ROW     1   COL    11   RATE    -77.1875    
 BOUNDARY     12   LAYER   1   ROW     1   COL    12   RATE    -12.7663    
 BOUNDARY     13   LAYER   1   ROW     1   COL    13   RATE     0.00000    
 BOUNDARY     14   LAYER   1   ROW     1   COL    14   RATE     0.00000    
 BOUNDARY     15   LAYER   1   ROW     1   COL    15   RATE     0.00000    
 BOUNDARY     16   LAYER   1   ROW     2   COL     1   RATE     0.00000    
 BOUNDARY     17   LAYER   1   ROW     2   COL     2   RATE    -3.40589    
 BOUNDARY     18   LAYER   1   ROW     2   COL     3   RATE    -21.6432    
 BOUNDARY     19   LAYER   1   ROW     2   COL     4   RATE    -77.1875    
 BOUNDARY     20   LAYER   1   ROW     2   COL     5   RATE    -77.1875    
 BOUNDARY     21   LAYER   1   ROW     2   COL     6   RATE    -77.1875    
 BOUNDARY     22   LAYER   1   ROW     2   COL     7   RATE    -77.1875    
 BOUNDARY     23   LAYER   1   ROW     2   COL     8   RATE    -77.1875    
 BOUNDARY     24   LAYER   1   ROW     2   COL     9   RATE    -77.1875    
 BOUNDARY     25   LAYER   1   ROW     2   COL    10   RATE    -77.1875    
 BOUNDARY     26   LAYER   1   ROW     2   COL    11   RATE    -77.1875    
 BOUNDARY     27   LAYER   1   ROW     2   COL    12   RATE    -14.1098    
 BOUNDARY     28   LAYER   1   ROW     2   COL    13   RATE   -6.304157E-03
 BOUNDARY     29   LAYER   1   ROW     2   COL    14   RATE     0.00000    
 BOUNDARY     30   LAYER   1   ROW     2   COL    15   RATE     0.00000    
 BOUNDARY     31   LAYER   1   ROW     3   COL     1   RATE     0.00000    
 BOUNDARY     32   LAYER   1   ROW     3   COL     2   RATE     0.00000    
 BOUNDARY     33   LAYER   1   ROW     3   COL     3   RATE    -17.0178    
 BOUNDARY     34   LAYER   1   ROW     3   COL     4   RATE    -77.1875    
 BOUNDARY     35   LAYER   1   ROW     3   COL     5   RATE    -77.1875    
 BOUNDARY     36   LAYER   1   ROW     3   COL     6   RATE    -77.1875    
 BOUNDARY     37   LAYER   1   ROW     3   COL     7   RATE    -77.1875    
 BOUNDARY     38   LAYER   1   ROW     3   COL     8   RATE    -77.1875    
 BOUNDARY     39   LAYER   1   ROW     3   COL     9   RATE    -77.1875    
 BOUNDARY     40   LAYER   1   ROW     3   COL    10   RATE    -77.1875    
 BOUNDARY     41   LAYER   1   ROW     3   COL    11   RATE    -77.1875    
 BOUNDARY     42   LAYER   1   ROW     3   COL    12   RATE    -16.3760    
 BOUNDARY     43   LAYER   1   ROW     3   COL    13   RATE    -1.38602    
 BOUNDARY     44   LAYER   1   ROW     3   COL    14   RATE     0.00000    
 BOUNDARY     45   LAYER   1   ROW     3   COL    15   RATE     0.00000    
 BOUNDARY     46   LAYER   1   ROW     4   COL     1   RATE     0.00000    
 BOUNDARY     47   LAYER   1   ROW     4   COL     2   RATE    -2.23710    
 BOUNDARY     48   LAYER   1   ROW     4   COL     3   RATE    -20.0025    
 BOUNDARY     49   LAYER   1   ROW     4   COL     4   RATE    -77.1875    
 BOUNDARY     50   LAYER   1   ROW     4   COL     5   RATE    -77.1875    
 BOUNDARY     51   LAYER   1   ROW     4   COL     6   RATE    -77.1875    
 BOUNDARY     52   LAYER   1   ROW     4   COL     7   RATE    -77.1875    
 BOUNDARY     53   LAYER   1   ROW     4   COL     8   RATE    -77.1875    
 BOUNDARY     54   LAYER   1   ROW     4   COL     9   RATE    -77.1875    
 BOUNDARY     55   LAYER   1   ROW     4   COL    10   RATE    -77.1875    
 BOUNDARY     56   LAYER   1   ROW     4   COL    11   RATE    -77.1875    
 BOUNDARY     57   LAYER   1   ROW     4   COL    12   RATE    -18.5394    
 BOUNDARY     58   LAYER   1   ROW     4   COL    13   RATE    -2.51798    
 BOUNDARY     59   LAYER   1   ROW     4   COL    14   RATE     0.00000    
 BOUNDARY     60   LAYER   1   ROW     4   COL    15   RATE     0.00000    
 BOUNDARY     61   LAYER   1   ROW     5   COL     1   RATE     0.00000    
 BOUNDARY     62   LAYER   1   ROW     5   COL     2   RATE    -4.53249    
 BOUNDARY     63   LAYER   1   ROW     5   COL     3   RATE    -23.0821    
 BOUNDARY     64   LAYER   1   ROW     5   COL     4   RATE    -77.1875    
 BOUNDARY     65   LAYER   1   ROW     5   COL     5   RATE    -77.1875    
 BOUNDARY     66   LAYER   1   ROW     5   COL     6   RATE    -77.1875    
 BOUNDARY     67   LAYER   1   ROW     5   COL     7   RATE    -77.1875    
 BOUNDARY     68   LAYER   1   ROW     5   COL     8   RATE    -77.1875    
 BOUNDARY     69   LAYER   1   ROW     5   COL     9   RATE    -77.1875    
 BOUNDARY     70   LAYER   1   ROW     5   COL    10   RATE    -77.1875    
 BOUNDARY     71   LAYER   1   ROW     5   COL    11   RATE    -77.1875    
 BOUNDARY     72   LAYER   1   ROW     5   COL    12   RATE    -20.0396    
 BOUNDARY     73   LAYER   1   ROW     5   COL    13   RATE    -3.22798    
 BOUNDARY     74   LAYER   1   ROW     5   COL    14   RATE     0.00000    
 BOUNDARY     75   LAYER   1   ROW     5   COL    15   RATE     0.00000    
 BOUNDARY     76   LAYER   1   ROW     6   COL     1   RATE     0.00000    
 BOUNDARY     77   LAYER   1   ROW     6   COL     2   RATE    -3.43008    
 BOUNDARY     78   LAYER   1   ROW     6   COL     3   RATE    -25.7625    
 BOUNDARY     79   LAYER   1   ROW     6   COL     4   RATE    -77.1875    
 BOUNDARY     80   LAYER   1   ROW     6   COL     5   RATE    -77.1875    
 BOUNDARY     81   LAYER   1   ROW     6   COL     6   RATE    -77.1875    
 BOUNDARY     82   LAYER   1   ROW     6   COL     7   RATE    -77.1875    
 BOUNDARY     83   LAYER   1   ROW     6   COL     8   RATE    -77.1875    
 BOUNDARY     84   LAYER   1   ROW     6   COL     9   RATE    -77.1875    
 BOUNDARY     85   LAYER   1   ROW     6   COL    10   RATE    -77.1875    
 BOUNDARY     86   LAYER   1   ROW     6   COL    11   RATE    -77.1875    
 BOUNDARY     87   LAYER   1   ROW     6   COL    12   RATE    -20.5411    
 BOUNDARY     88   LAYER   1   ROW     6   COL    13   RATE    -3.19704    
 BOUNDARY     89   LAYER   1   ROW     6   COL    14   RATE     0.00000    
 BOUNDARY     90   LAYER   1   ROW     6   COL    15   RATE     0.00000    
 BOUNDARY     91   LAYER   1   ROW     7   COL     1   RATE     0.00000    
 BOUNDARY     92   LAYER   1   ROW     7   COL     2   RATE   -0.733962    
 BOUNDARY     93   LAYER   1   ROW     7   COL     3   RATE    -31.0995    
 BOUNDARY     94   LAYER   1   ROW     7   COL     4   RATE    -77.1875    
 BOUNDARY     95   LAYER   1   ROW     7   COL     5   RATE    -77.1875    
 BOUNDARY     96   LAYER   1   ROW     7   COL     6   RATE    -77.1875    
 BOUNDARY     97   LAYER   1   ROW     7   COL     7   RATE    -77.1875    
 BOUNDARY     98   LAYER   1   ROW     7   COL     8   RATE    -77.1875    
 BOUNDARY     99   LAYER   1   ROW     7   COL     9   RATE    -77.1875    
 BOUNDARY    100   LAYER   1   ROW     7   COL    10   RATE    -77.1875    
 BOUNDARY    101   LAYER   1   ROW     7   COL    11   RATE    -77.1875    
 BOUNDARY    102   LAYER   1   ROW     7   COL    12   RATE    -20.4134    
 BOUNDARY    103   LAYER   1   ROW     7   COL    13   RATE    -2.62730    
 BOUNDARY    104   LAYER   1   ROW     7   COL    14   RATE     0.00000    
 BOUNDARY    105   LAYER   1   ROW     7   COL    15   RATE     0.00000    
 BOUNDARY    106   LAYER   1   ROW     8   COL     1   RATE     0.00000    
 BOUNDARY    107   LAYER   1   ROW     8   COL     2   RATE    -8.51608    
 BOUNDARY    108   LAYER   1   ROW     8   COL     3   RATE    -77.1875    
 BOUNDARY    109   LAYER   1   ROW     8   COL     4   RATE    -77.1875    
 BOUNDARY    110   LAYER   1   ROW     8   COL     5   RATE    -77.1875    
 BOUNDARY    111   LAYER   1   ROW     8   COL     6   RATE    -77.1875    
 BOUNDARY    112   LAYER   1   ROW     8   COL     7   RATE    -77.1875    
 BOUNDARY    113   LAYER   1   ROW     8   COL     8   RATE    -77.1875    
 BOUNDARY    114   LAYER   1   ROW     8   COL     9   RATE    -77.1875    
 BOUNDARY    115   LAYER   1   ROW     8   COL    10   RATE    -77.1875    
 BOUNDARY    116   LAYER   1   ROW     8   COL    11   RATE    -77.1875    
 BOUNDARY    117   LAYER   1   ROW     8   COL    12   RATE    -20.7108    
 BOUNDARY    118   LAYER   1   ROW     8   COL    13   RATE    -2.62641    
 BOUNDARY    119   LAYER   1   ROW     8   COL    14   RATE     0.00000    
 BOUNDARY    120   LAYER   1   ROW     8   COL    15   RATE     0.00000    
 BOUNDARY    121   LAYER   1   ROW     9   COL     1   RATE    -14.3681    
 BOUNDARY    122   LAYER   1   ROW     9   COL     2   RATE    -45.8679    
 BOUNDARY    123   LAYER   1   ROW     9   COL     3   RATE    -77.1875    
 BOUNDARY    124   LAYER   1   ROW     9   COL     4   RATE    -77.1875    
 BOUNDARY    125   LAYER   1   ROW     9   COL     5   RATE    -77.1875    
 BOUNDARY    126   LAYER   1   ROW     9   COL     6   RATE    -77.1875    
 BOUNDARY    127   LAYER   1   ROW     9   COL     7   RATE    -77.1875    
 BOUNDARY    128   LAYER   1   ROW     9   COL     8   RATE    -77.1875    
 BOUNDARY    129   LAYER   1   ROW     9   COL     9   RATE    -77.1875    
 BOUNDARY    130   LAYER   1   ROW     9   COL    10   RATE    -77.1875    
 BOUNDARY    131   LAYER   1   ROW     9   COL    11   RATE    -77.1875    
 BOUNDARY    132   LAYER   1   ROW     9   COL    12   RATE    -21.5554    
 BOUNDARY    133   LAYER   1   ROW     9   COL    13   RATE    -3.25242    
 BOUNDARY    134   LAYER   1   ROW     9   COL    14   RATE     0.00000    
 BOUNDARY    135   LAYER   1   ROW     9   COL    15   RATE     0.00000    
 BOUNDARY    136   LAYER   1   ROW    10   COL     1   RATE    -52.2258    
 BOUNDARY    137   LAYER   1   ROW    10   COL     2   RATE    -77.1875    
 BOUNDARY    138   LAYER   1   ROW    10   COL     3   RATE    -77.1875    
 BOUNDARY    139   LAYER   1   ROW    10   COL     4   RATE    -77.1875    
 BOUNDARY    140   LAYER   1   ROW    10   COL     5   RATE    -77.1875    
 BOUNDARY    141   LAYER   1   ROW    10   COL     6   RATE    -77.1875    
 BOUNDARY    142   LAYER   1   ROW    10   COL     7   RATE    -77.1875    
 BOUNDARY    143   LAYER   1   ROW    10   COL     8   RATE    -77.1875    
 BOUNDARY    144   LAYER   1   ROW    10   COL     9   RATE    -77.1875    
 BOUNDARY    145   LAYER   1   ROW    10   COL    10   RATE    -77.1875    
 BOUNDARY    146   LAYER   1   ROW    10   COL    11   RATE    -77.1875    
 BOUNDARY    147   LAYER   1   ROW    10   COL    12   RATE    -22.1685    
 BOUNDARY    148   LAYER   1   ROW    10   COL    13   RATE    -3.65751    
 BOUNDARY    149   LAYER   1   ROW    10   COL    14   RATE     0.00000    
 BOUNDARY    150   LAYER   1   ROW    10   COL    15   RATE     0.00000    

 HEAD WILL BE SAVED ON UNIT 1017 AT END OF TIME STEP   10, STRESS PERIOD    2
WEL   no.    1 value from time series:   0.0000     for time:  11.00     to  12.00    
WEL   no.    2 value from time series:   0.0000     for time:  11.00     to  12.00    
RIV   no.    1 value from time series:   101.00     for time:  11.00     to  12.00    
RIV   no.    2 value from time series:   101.00     for time:  11.00     to  12.00    
RIV   no.    3 value from time series:   111.50     for time:  11.00     to  12.00    
RIV   no.    4 value from time series:   111.50     for time:  11.00     to  12.00    
RIV   no.    5 value from time series:   115.10     for time:  11.00     to  12.00    
RIV   no.    6 value from time series:   115.10     for time:  11.00     to  12.00    
RIV   no.    7 value from time series:   104.00     for time:  11.00     to  12.00    
RIV   no.    8 value from time series:   104.00     for time:  11.00     to  12.00    
RIV   no.    9 value from time series:   113.50     for time:  11.00     to  12.00    
RIV   no.   10 value from time series:   113.50     for time:  11.00     to  12.00    
WEL   no.    1 value from time series:   0.0000     for time:  11.00     to  12.00    
WEL   no.    2 value from time series:   0.0000     for time:  11.00     to  12.00    
RIV   no.    1 value from time series:   101.00     for time:  11.00     to  12.00    
RIV   no.    2 value from time series:   101.00     for time:  11.00     to  12.00    
RIV   no.    3 value from time series:   111.50     for time:  11.00     to  12.00    
RIV   no.    4 value from time series:   111.50     for time:  11.00     to  12.00    
RIV   no.    5 value from time series:   115.10     for time:  11.00     to  12.00    
RIV   no.    6 value from time series:   115.10     for time:  11.00     to  12.00    
RIV   no.    7 value from time series:   104.00     for time:  11.00     to  12.00    
RIV   no.    8 value from time series:   104.00     for time:  11.00     to  12.00    
RIV   no.    9 value from time series:   113.50     for time:  11.00     to  12.00    
RIV   no.   10 value from time series:   113.50     for time:  11.00     to  12.00    

 NO OUTPUT CONTROL FOR STRESS PERIOD    2   TIME STEP   11
WEL   no.    1 value from time series:   0.0000     for time:  12.00     to  13.00    
WEL   no.    2 value from time series:   0.0000     for time:  12.00     to  13.00    
RIV   no.    1 value from time series:   101.00     for time:  12.00     to  13.00    
RIV   no.    2 value from time series:   101.00     for time:  12.00     to  13.00    
RIV   no.    3 value from time series:   111.50     for time:  12.00     to  13.00    
RIV   no.    4 value from time series:   111.50     for time:  12.00     to  13.00    
RIV   no.    5 value from time series:   115.10     for time:  12.00     to  13.00    
RIV   no.    6 value from time series:   115.10     for time:  12.00     to  13.00    
RIV   no.    7 value from time series:   104.00     for time:  12.00     to  13.00    
RIV   no.    8 value from time series:   104.00     for time:  12.00     to  13.00    
RIV   no.    9 value from time series:   113.50     for time:  12.00     to  13.00    
RIV   no.   10 value from time series:   113.50     for time:  12.00     to  13.00    
WEL   no.    1 value from time series:   0.0000     for time:  12.00     to  13.00    
WEL   no.    2 value from time series:   0.0000     for time:  12.00     to  13.00    
RIV   no.    1 value from time series:   101.00     for time:  12.00     to  13.00    
RIV   no.    2 value from time series:   101.00     for time:  12.00     to  13.00    
RIV   no.    3 value from time series:   111.50     for time:  12.00     to  13.00    
RIV   no.    4 value from time series:   111.50     for time:  12.00     to  13.00    
RIV   no.    5 value from time series:   115.10     for time:  12.00     to  13.00    
RIV   no.    6 value from time series:   115.10     for time:  12.00     to  13.00    
RIV   no.    7 value from time series:   104.00     for time:  12.00     to  13.00    
RIV   no.    8 value from time series:   104.00     for time:  12.00     to  13.00    
RIV   no.    9 value from time series:   113.50     for time:  12.00     to  13.00    
RIV   no.   10 value from time series:   113.50     for time:  12.00     to  13.00    

 NO OUTPUT CONTROL FOR STRESS PERIOD    2   TIME STEP   12
WEL   no.    1 value from time series:   0.0000     for time:  13.00     to  14.00    
WEL   no.    2 value from time series:   0.0000     for time:  13.00     to  14.00    
RIV   no.    1 value from time series:   101.00     for time:  13.00     to  14.00    
RIV   no.    2 value from time series:   101.00     for time:  13.00     to  14.00    
RIV   no.    3 value from time series:   111.50     for time:  13.00     to  14.00    
RIV   no.    4 value from time series:   111.50     for time:  13.00     to  14.00    
RIV   no.    5 value from time series:   115.10     for time:  13.00     to  14.00    
RIV   no.    6 value from time series:   115.10     for time:  13.00     to  14.00    
RIV   no.    7 value from time series:   104.00     for time:  13.00     to  14.00    
RIV   no.    8 value from time series:   104.00     for time:  13.00     to  14.00    
RIV   no.    9 value from time series:   113.50     for time:  13.00     to  14.00    
RIV   no.   10 value from time series:   113.50     for time:  13.00     to  14.00    
WEL   no.    1 value from time series:   0.0000     for time:  13.00     to  14.00    
WEL   no.    2 value from time series:   0.0000     for time:  13.00     to  14.00    
RIV   no.    1 value from time series:   101.00     for time:  13.00     to  14.00    
RIV   no.    2 value from time series:   101.00     for time:  13.00     to  14.00    
RIV   no.    3 value from time series:   111.50     for time:  13.00     to  14.00    
RIV   no.    4 value from time series:   111.50     for time:  13.00     to  14.00    
RIV   no.    5 value from time series:   115.10     for time:  13.00     to  14.00    
RIV   no.    6 value from time series:   115.10     for time:  13.00     to  14.00    
RIV   no.    7 value from time series:   104.00     for time:  13.00     to  14.00    
RIV   no.    8 value from time series:   104.00     for time:  13.00     to  14.00    
RIV   no.    9 value from time series:   113.50     for time:  13.00     to  14.00    
RIV   no.   10 value from time series:   113.50     for time:  13.00     to  14.00    

 NO OUTPUT CONTROL FOR STRESS PERIOD    2   TIME STEP   13
WEL   no.    1 value from time series:   0.0000     for time:  14.00     to  15.00    
WEL   no.    2 value from time series:   0.0000     for time:  14.00     to  15.00    
RIV   no.    1 value from time series:   101.00     for time:  14.00     to  15.00    
RIV   no.    2 value from time series:   101.00     for time:  14.00     to  15.00    
RIV   no.    3 value from time series:   111.50     for time:  14.00     to  15.00    
RIV   no.    4 value from time series:   111.50     for time:  14.00     to  15.00    
RIV   no.    5 value from time series:   115.10     for time:  14.00     to  15.00    
RIV   no.    6 value from time series:   115.10     for time:  14.00     to  15.00    
RIV   no.    7 value from time series:   104.00     for time:  14.00     to  15.00    
RIV   no.    8 value from time series:   104.00     for time:  14.00     to  15.00    
RIV   no.    9 value from time series:   113.50     for time:  14.00     to  15.00    
RIV   no.   10 value from time series:   113.50     for time:  14.00     to  15.00    
WEL   no.    1 value from time series:   0.0000     for time:  14.00     to  15.00    
WEL   no.    2 value from time series:   0.0000     for time:  14.00     to  15.00    
RIV   no.    1 value from time series:   101.00     for time:  14.00     to  15.00    
RIV   no.    2 value from time series:   101.00     for time:  14.00     to  15.00    
RIV   no.    3 value from time series:   111.50     for time:  14.00     to  15.00    
RIV   no.    4 value from time series:   111.50     for time:  14.00     to  15.00    
RIV   no.    5 value from time series:   115.10     for time:  14.00     to  15.00    
RIV   no.    6 value from time series:   115.10     for time:  14.00     to  15.00    
RIV   no.    7 value from time series:   104.00     for time:  14.00     to  15.00    
RIV   no.    8 value from time series:   104.00     for time:  14.00     to  15.00    
RIV   no.    9 value from time series:   113.50     for time:  14.00     to  15.00    
RIV   no.   10 value from time series:   113.50     for time:  14.00     to  15.00    

 NO OUTPUT CONTROL FOR STRESS PERIOD    2   TIME STEP   14
WEL   no.    1 value from time series:   0.0000     for time:  15.00     to  16.00    
WEL   no.    2 value from time series:   0.0000     for time:  15.00     to  16.00    
RIV   no.    1 value from time series:   101.00     for time:  15.00     to  16.00    
RIV   no.    2 value from time series:   101.00     for time:  15.00     to  16.00    
RIV   no.    3 value from time series:   111.50     for time:  15.00     to  16.00    
RIV   no.    4 value from time series:   111.50     for time:  15.00     to  16.00    
RIV   no.    5 value from time series:   115.10     for time:  15.00     to  16.00    
RIV   no.    6 value from time series:   115.10     for time:  15.00     to  16.00    
RIV   no.    7 value from time series:   104.00     for time:  15.00     to  16.00    
RIV   no.    8 value from time series:   104.00     for time:  15.00     to  16.00    
RIV   no.    9 value from time series:   113.50     for time:  15.00     to  16.00    
RIV   no.   10 value from time series:   113.50     for time:  15.00     to  16.00    
WEL   no.    1 value from time series:   0.0000     for time:  15.00     to  16.00    
WEL   no.    2 value from time series:   0.0000     for time:  15.00     to  16.00    
RIV   no.    1 value from time series:   101.00     for time:  15.00     to  16.00    
RIV   no.    2 value from time series:   101.00     for time:  15.00     to  16.00    
RIV   no.    3 value from time series:   111.50     for time:  15.00     to  16.00    
RIV   no.    4 value from time series:   111.50     for time:  15.00     to  16.00    
RIV   no.    5 value from time series:   115.10     for time:  15.00     to  16.00    
RIV   no.    6 value from time series:   115.10     for time:  15.00     to  16.00    
RIV   no.    7 value from time series:   104.00     for time:  15.00     to  16.00    
RIV   no.    8 value from time series:   104.00     for time:  15.00     to  16.00    
RIV   no.    9 value from time series:   113.50     for time:  15.00     to  16.00    
RIV   no.   10 value from time series:   113.50     for time:  15.00     to  16.00    

 NO OUTPUT CONTROL FOR STRESS PERIOD    2   TIME STEP   15
WEL   no.    1 value from time series:   0.0000     for time:  16.00     to  17.00    
WEL   no.    2 value from time series:   0.0000     for time:  16.00     to  17.00    
RIV   no.    1 value from time series:   101.00     for time:  16.00     to  17.00    
RIV   no.    2 value from time series:   101.00     for time:  16.00     to  17.00    
RIV   no.    3 value from time series:   111.50     for time:  16.00     to  17.00    
RIV   no.    4 value from time series:   111.50     for time:  16.00     to  17.00    
RIV   no.    5 value from time series:   115.10     for time:  16.00     to  17.00    
RIV   no.    6 value from time series:   115.10     for time:  16.00     to  17.00    
RIV   no.    7 value from time series:   104.00     for time:  16.00     to  17.00    
RIV   no.    8 value from time series:   104.00     for time:  16.00     to  17.00    
RIV   no.    9 value from time series:   113.50     for time:  16.00     to  17.00    
RIV   no.   10 value from time series:   113.50     for time:  16.00     to  17.00    
WEL   no.    1 value from time series:   0.0000     for time:  16.00     to  17.00    
WEL   no.    2 value from time series:   0.0000     for time:  16.00     to  17.00    
RIV   no.    1 value from time series:   101.00     for time:  16.00     to  17.00    
RIV   no.    2 value from time series:   101.00     for time:  16.00     to  17.00    
RIV   no.    3 value from time series:   111.50     for time:  16.00     to  17.00    
RIV   no.    4 value from time series:   111.50     for time:  16.00     to  17.00    
RIV   no.    5 value from time series:   115.10     for time:  16.00     to  17.00    
RIV   no.    6 value from time series:   115.10     for time:  16.00     to  17.00    
RIV   no.    7 value from time series:   104.00     for time:  16.00     to  17.00    
RIV   no.    8 value from time series:   104.00     for time:  16.00     to  17.00    
RIV   no.    9 value from time series:   113.50     for time:  16.00     to  17.00    
RIV   no.   10 value from time series:   113.50     for time:  16.00     to  17.00    

 NO OUTPUT CONTROL FOR STRESS PERIOD    2   TIME STEP   16
WEL   no.    1 value from time series:   0.0000     for time:  17.00     to  18.00    
WEL   no.    2 value from time series:   0.0000     for time:  17.00     to  18.00    
RIV   no.    1 value from time series:   101.00     for time:  17.00     to  18.00    
RIV   no.    2 value from time series:   101.00     for time:  17.00     to  18.00    
RIV   no.    3 value from time series:   111.50     for time:  17.00     to  18.00    
RIV   no.    4 value from time series:   111.50     for time:  17.00     to  18.00    
RIV   no.    5 value from time series:   115.10     for time:  17.00     to  18.00    
RIV   no.    6 value from time series:   115.10     for time:  17.00     to  18.00    
RIV   no.    7 value from time series:   104.00     for time:  17.00     to  18.00    
RIV   no.    8 value from time series:   104.00     for time:  17.00     to  18.00    
RIV   no.    9 value from time series:   113.50     for time:  17.00     to  18.00    
RIV   no.   10 value from time series:   113.50     for time:  17.00     to  18.00    
WEL   no.    1 value from time series:   0.0000     for time:  17.00     to  18.00    
WEL   no.    2 value from time series:   0.0000     for time:  17.00     to  18.00    
RIV   no.    1 value from time series:   101.00     for time:  17.00     to  18.00    
RIV   no.    2 value from time series:   101.00     for time:  17.00     to  18.00    
RIV   no.    3 value from time series:   111.50     for time:  17.00     to  18.00    
RIV   no.    4 value from time series:   111.50     for time:  17.00     to  18.00    
RIV   no.    5 value from time series:   115.10     for time:  17.00     to  18.00    
RIV   no.    6 value from time series:   115.10     for time:  17.00     to  18.00    
RIV   no.    7 value from time series:   104.00     for time:  17.00     to  18.00    
RIV   no.    8 value from time series:   104.00     for time:  17.00     to  18.00    
RIV   no.    9 value from time series:   113.50     for time:  17.00     to  18.00    
RIV   no.   10 value from time series:   113.50     for time:  17.00     to  18.00    

 NO OUTPUT CONTROL FOR STRESS PERIOD    2   TIME STEP   17
WEL   no.    1 value from time series:   0.0000     for time:  18.00     to  19.00    
WEL   no.    2 value from time series:   0.0000     for time:  18.00     to  19.00    
RIV   no.    1 value from time series:   101.00     for time:  18.00     to  19.00    
RIV   no.    2 value from time series:   101.00     for time:  18.00     to  19.00    
RIV   no.    3 value from time series:   111.50     for time:  18.00     to  19.00    
RIV   no.    4 value from time series:   111.50     for time:  18.00     to  19.00    
RIV   no.    5 value from time series:   115.10     for time:  18.00     to  19.00    
RIV   no.    6 value from time series:   115.10     for time:  18.00     to  19.00    
RIV   no.    7 value from time series:   104.00     for time:  18.00     to  19.00    
RIV   no.    8 value from time series:   104.00     for time:  18.00     to  19.00    
RIV   no.    9 value from time series:   113.50     for time:  18.00     to  19.00    
RIV   no.   10 value from time series:   113.50     for time:  18.00     to  19.00    
WEL   no.    1 value from time series:   0.0000     for time:  18.00     to  19.00    
WEL   no.    2 value from time series:   0.0000     for time:  18.00     to  19.00    
RIV   no.    1 value from time series:   101.00     for time:  18.00     to  19.00    
RIV   no.    2 value from time series:   101.00     for time:  18.00     to  19.00    
RIV   no.    3 value from time series:   111.50     for time:  18.00     to  19.00    
RIV   no.    4 value from time series:   111.50     for time:  18.00     to  19.00    
RIV   no.    5 value from time series:   115.10     for time:  18.00     to  19.00    
RIV   no.    6 value from time series:   115.10     for time:  18.00     to  19.00    
RIV   no.    7 value from time series:   104.00     for time:  18.00     to  19.00    
RIV   no.    8 value from time series:   104.00     for time:  18.00     to  19.00    
RIV   no.    9 value from time series:   113.50     for time:  18.00     to  19.00    
RIV   no.   10 value from time series:   113.50     for time:  18.00     to  19.00    

 NO OUTPUT CONTROL FOR STRESS PERIOD    2   TIME STEP   18
WEL   no.    1 value from time series:   0.0000     for time:  19.00     to  20.00    
WEL   no.    2 value from time series:   0.0000     for time:  19.00     to  20.00    
RIV   no.    1 value from time series:   101.00     for time:  19.00     to  20.00    
RIV   no.    2 value from time series:   101.00     for time:  19.00     to  20.00    
RIV   no.    3 value from time series:   111.50     for time:  19.00     to  20.00    
RIV   no.    4 value from time series:   111.50     for time:  19.00     to  20.00    
RIV   no.    5 value from time series:   115.10     for time:  19.00     to  20.00    
RIV   no.    6 value from time series:   115.10     for time:  19.00     to  20.00    
RIV   no.    7 value from time series:   104.00     for time:  19.00     to  20.00    
RIV   no.    8 value from time series:   104.00     for time:  19.00     to  20.00    
RIV   no.    9 value from time series:   113.50     for time:  19.00     to  20.00    
RIV   no.   10 value from time series:   113.50     for time:  19.00     to  20.00    
WEL   no.    1 value from time series:   0.0000     for time:  19.00     to  20.00    
WEL   no.    2 value from time series:   0.0000     for time:  19.00     to  20.00    
RIV   no.    1 value from time series:   101.00     for time:  19.00     to  20.00    
RIV   no.    2 value from time series:   101.00     for time:  19.00     to  20.00    
RIV   no.    3 value from time series:   111.50     for time:  19.00     to  20.00    
RIV   no.    4 value from time series:   111.50     for time:  19.00     to  20.00    
RIV   no.    5 value from time series:   115.10     for time:  19.00     to  20.00    
RIV   no.    6 value from time series:   115.10     for time:  19.00     to  20.00    
RIV   no.    7 value from time series:   104.00     for time:  19.00     to  20.00    
RIV   no.    8 value from time series:   104.00     for time:  19.00     to  20.00    
RIV   no.    9 value from time series:   113.50     for time:  19.00     to  20.00    
RIV   no.   10 value from time series:   113.50     for time:  19.00     to  20.00    

 NO OUTPUT CONTROL FOR STRESS PERIOD    2   TIME STEP   19
WEL   no.    1 value from time series:   0.0000     for time:  20.00     to  21.00    
WEL   no.    2 value from time series:   0.0000     for time:  20.00     to  21.00    
RIV   no.    1 value from time series:   101.00     for time:  20.00     to  21.00    
RIV   no.    2 value from time series:   101.00     for time:  20.00     to  21.00    
RIV   no.    3 value from time series:   111.50     for time:  20.00     to  21.00    
RIV   no.    4 value from time series:   111.50     for time:  20.00     to  21.00    
RIV   no.    5 value from time series:   115.10     for time:  20.00     to  21.00    
RIV   no.    6 value from time series:   115.10     for time:  20.00     to  21.00    
RIV   no.    7 value from time series:   104.00     for time:  20.00     to  21.00    
RIV   no.    8 value from time series:   104.00     for time:  20.00     to  21.00    
RIV   no.    9 value from time series:   113.50     for time:  20.00     to  21.00    
RIV   no.   10 value from time series:   113.50     for time:  20.00     to  21.00    
WEL   no.    1 value from time series:   0.0000     for time:  20.00     to  21.00    
WEL   no.    2 value from time series:   0.0000     for time:  20.00     to  21.00    
RIV   no.    1 value from time series:   101.00     for time:  20.00     to  21.00    
RIV   no.    2 value from time series:   101.00     for time:  20.00     to  21.00    
RIV   no.    3 value from time series:   111.50     for time:  20.00     to  21.00    
RIV   no.    4 value from time series:   111.50     for time:  20.00     to  21.00    
RIV   no.    5 value from time series:   115.10     for time:  20.00     to  21.00    
RIV   no.    6 value from time series:   115.10     for time:  20.00     to  21.00    
RIV   no.    7 value from time series:   104.00     for time:  20.00     to  21.00    
RIV   no.    8 value from time series:   104.00     for time:  20.00     to  21.00    
RIV   no.    9 value from time series:   113.50     for time:  20.00     to  21.00    
RIV   no.   10 value from time series:   113.50     for time:  20.00     to  21.00    

 NO OUTPUT CONTROL FOR STRESS PERIOD    2   TIME STEP   20
WEL   no.    1 value from time series:   0.0000     for time:  21.00     to  22.00    
WEL   no.    2 value from time series:   0.0000     for time:  21.00     to  22.00    
RIV   no.    1 value from time series:   101.00     for time:  21.00     to  22.00    
RIV   no.    2 value from time series:   101.00     for time:  21.00     to  22.00    
RIV   no.    3 value from time series:   111.50     for time:  21.00     to  22.00    
RIV   no.    4 value from time series:   111.50     for time:  21.00     to  22.00    
RIV   no.    5 value from time series:   115.10     for time:  21.00     to  22.00    
RIV   no.    6 value from time series:   115.10     for time:  21.00     to  22.00    
RIV   no.    7 value from time series:   104.00     for time:  21.00     to  22.00    
RIV   no.    8 value from time series:   104.00     for time:  21.00     to  22.00    
RIV   no.    9 value from time series:   113.50     for time:  21.00     to  22.00    
RIV   no.   10 value from time series:   113.50     for time:  21.00     to  22.00    
WEL   no.    1 value from time series:   0.0000     for time:  21.00     to  22.00    
WEL   no.    2 value from time series:   0.0000     for time:  21.00     to  22.00    
RIV   no.    1 value from time series:   101.00     for time:  21.00     to  22.00    
RIV   no.    2 value from time series:   101.00     for time:  21.00     to  22.00    
RIV   no.    3 value from time series:   111.50     for time:  21.00     to  22.00    
RIV   no.    4 value from time series:   111.50     for time:  21.00     to  22.00    
RIV   no.    5 value from time series:   115.10     for time:  21.00     to  22.00    
RIV   no.    6 value from time series:   115.10     for time:  21.00     to  22.00    
RIV   no.    7 value from time series:   104.00     for time:  21.00     to  22.00    
RIV   no.    8 value from time series:   104.00     for time:  21.00     to  22.00    
RIV   no.    9 value from time series:   113.50     for time:  21.00     to  22.00    
RIV   no.   10 value from time series:   113.50     for time:  21.00     to  22.00    

 NO OUTPUT CONTROL FOR STRESS PERIOD    2   TIME STEP   21
WEL   no.    1 value from time series:   0.0000     for time:  22.00     to  23.00    
WEL   no.    2 value from time series:   0.0000     for time:  22.00     to  23.00    
RIV   no.    1 value from time series:   101.00     for time:  22.00     to  23.00    
RIV   no.    2 value from time series:   101.00     for time:  22.00     to  23.00    
RIV   no.    3 value from time series:   111.50     for time:  22.00     to  23.00    
RIV   no.    4 value from time series:   111.50     for time:  22.00     to  23.00    
RIV   no.    5 value from time series:   115.10     for time:  22.00     to  23.00    
RIV   no.    6 value from time series:   115.10     for time:  22.00     to  23.00    
RIV   no.    7 value from time series:   104.00     for time:  22.00     to  23.00    
RIV   no.    8 value from time series:   104.00     for time:  22.00     to  23.00    
RIV   no.    9 value from time series:   113.50     for time:  22.00     to  23.00    
RIV   no.   10 value from time series:   113.50     for time:  22.00     to  23.00    
WEL   no.    1 value from time series:   0.0000     for time:  22.00     to  23.00    
WEL   no.    2 value from time series:   0.0000     for time:  22.00     to  23.00    
RIV   no.    1 value from time series:   101.00     for time:  22.00     to  23.00    
RIV   no.    2 value from time series:   101.00     for time:  22.00     to  23.00    
RIV   no.    3 value from time series:   111.50     for time:  22.00     to  23.00    
RIV   no.    4 value from time series:   111.50     for time:  22.00     to  23.00    
RIV   no.    5 value from time series:   115.10     for time:  22.00     to  23.00    
RIV   no.    6 value from time series:   115.10     for time:  22.00     to  23.00    
RIV   no.    7 value from time series:   104.00     for time:  22.00     to  23.00    
RIV   no.    8 value from time series:   104.00     for time:  22.00     to  23.00    
RIV   no.    9 value from time series:   113.50     for time:  22.00     to  23.00    
RIV   no.   10 value from time series:   113.50     for time:  22.00     to  23.00    

 NO OUTPUT CONTROL FOR STRESS PERIOD    2   TIME STEP   22
WEL   no.    1 value from time series:   0.0000     for time:  23.00     to  24.00    
WEL   no.    2 value from time series:   0.0000     for time:  23.00     to  24.00    
RIV   no.    1 value from time series:   101.00     for time:  23.00     to  24.00    
RIV   no.    2 value from time series:   101.00     for time:  23.00     to  24.00    
RIV   no.    3 value from time series:   111.50     for time:  23.00     to  24.00    
RIV   no.    4 value from time series:   111.50     for time:  23.00     to  24.00    
RIV   no.    5 value from time series:   115.10     for time:  23.00     to  24.00    
RIV   no.    6 value from time series:   115.10     for time:  23.00     to  24.00    
RIV   no.    7 value from time series:   104.00     for time:  23.00     to  24.00    
RIV   no.    8 value from time series:   104.00     for time:  23.00     to  24.00    
RIV   no.    9 value from time series:   113.50     for time:  23.00     to  24.00    
RIV   no.   10 value from time series:   113.50     for time:  23.00     to  24.00    
WEL   no.    1 value from time series:   0.0000     for time:  23.00     to  24.00    
WEL   no.    2 value from time series:   0.0000     for time:  23.00     to  24.00    
RIV   no.    1 value from time series:   101.00     for time:  23.00     to  24.00    
RIV   no.    2 value from time series:   101.00     for time:  23.00     to  24.00    
RIV   no.    3 value from time series:   111.50     for time:  23.00     to  24.00    
RIV   no.    4 value from time series:   111.50     for time:  23.00     to  24.00    
RIV   no.    5 value from time series:   115.10     for time:  23.00     to  24.00    
RIV   no.    6 value from time series:   115.10     for time:  23.00     to  24.00    
RIV   no.    7 value from time series:   104.00     for time:  23.00     to  24.00    
RIV   no.    8 value from time series:   104.00     for time:  23.00     to  24.00    
RIV   no.    9 value from time series:   113.50     for time:  23.00     to  24.00    
RIV   no.   10 value from time series:   113.50     for time:  23.00     to  24.00    

 NO OUTPUT CONTROL FOR STRESS PERIOD    2   TIME STEP   23
WEL   no.    1 value from time series:   0.0000     for time:  24.00     to  25.00    
WEL   no.    2 value from time series:   0.0000     for time:  24.00     to  25.00    
RIV   no.    1 value from time series:   101.00     for time:  24.00     to  25.00    
RIV   no.    2 value from time series:   101.00     for time:  24.00     to  25.00    
RIV   no.    3 value from time series:   111.50     for time:  24.00     to  25.00    
RIV   no.    4 value from time series:   111.50     for time:  24.00     to  25.00    
RIV   no.    5 value from time series:   115.10     for time:  24.00     to  25.00    
RIV   no.    6 value from time series:   115.10     for time:  24.00     to  25.00    
RIV   no.    7 value from time series:   104.00     for time:  24.00     to  25.00    
RIV   no.    8 value from time series:   104.00     for time:  24.00     to  25.00    
RIV   no.    9 value from time series:   113.50     for time:  24.00     to  25.00    
RIV   no.   10 value from time series:   113.50     for time:  24.00     to  25.00    
WEL   no.    1 value from time series:   0.0000     for time:  24.00     to  25.00    
WEL   no.    2 value from time series:   0.0000     for time:  24.00     to  25.00    
RIV   no.    1 value from time series:   101.00     for time:  24.00     to  25.00    
RIV   no.    2 value from time series:   101.00     for time:  24.00     to  25.00    
RIV   no.    3 value from time series:   111.50     for time:  24.00     to  25.00    
RIV   no.    4 value from time series:   111.50     for time:  24.00     to  25.00    
RIV   no.    5 value from time series:   115.10     for time:  24.00     to  25.00    
RIV   no.    6 value from time series:   115.10     for time:  24.00     to  25.00    
RIV   no.    7 value from time series:   104.00     for time:  24.00     to  25.00    
RIV   no.    8 value from time series:   104.00     for time:  24.00     to  25.00    
RIV   no.    9 value from time series:   113.50     for time:  24.00     to  25.00    
RIV   no.   10 value from time series:   113.50     for time:  24.00     to  25.00    

 NO OUTPUT CONTROL FOR STRESS PERIOD    2   TIME STEP   24
WEL   no.    1 value from time series:   0.0000     for time:  25.00     to  26.00    
WEL   no.    2 value from time series:   0.0000     for time:  25.00     to  26.00    
RIV   no.    1 value from time series:   101.00     for time:  25.00     to  26.00    
RIV   no.    2 value from time series:   101.00     for time:  25.00     to  26.00    
RIV   no.    3 value from time series:   111.50     for time:  25.00     to  26.00    
RIV   no.    4 value from time series:   111.50     for time:  25.00     to  26.00    
RIV   no.    5 value from time series:   115.10     for time:  25.00     to  26.00    
RIV   no.    6 value from time series:   115.10     for time:  25.00     to  26.00    
RIV   no.    7 value from time series:   104.00     for time:  25.00     to  26.00    
RIV   no.    8 value from time series:   104.00     for time:  25.00     to  26.00    
RIV   no.    9 value from time series:   113.50     for time:  25.00     to  26.00    
RIV   no.   10 value from time series:   113.50     for time:  25.00     to  26.00    
WEL   no.    1 value from time series:   0.0000     for time:  25.00     to  26.00    
WEL   no.    2 value from time series:   0.0000     for time:  25.00     to  26.00    
RIV   no.    1 value from time series:   101.00     for time:  25.00     to  26.00    
RIV   no.    2 value from time series:   101.00     for time:  25.00     to  26.00    
RIV   no.    3 value from time series:   111.50     for time:  25.00     to  26.00    
RIV   no.    4 value from time series:   111.50     for time:  25.00     to  26.00    
RIV   no.    5 value from time series:   115.10     for time:  25.00     to  26.00    
RIV   no.    6 value from time series:   115.10     for time:  25.00     to  26.00    
RIV   no.    7 value from time series:   104.00     for time:  25.00     to  26.00    
RIV   no.    8 value from time series:   104.00     for time:  25.00     to  26.00    
RIV   no.    9 value from time series:   113.50     for time:  25.00     to  26.00    
RIV   no.   10 value from time series:   113.50     for time:  25.00     to  26.00    

 NO OUTPUT CONTROL FOR STRESS PERIOD    2   TIME STEP   25
WEL   no.    1 value from time series:   0.0000     for time:  26.00     to  27.00    
WEL   no.    2 value from time series:   0.0000     for time:  26.00     to  27.00    
RIV   no.    1 value from time series:   101.00     for time:  26.00     to  27.00    
RIV   no.    2 value from time series:   101.00     for time:  26.00     to  27.00    
RIV   no.    3 value from time series:   111.50     for time:  26.00     to  27.00    
RIV   no.    4 value from time series:   111.50     for time:  26.00     to  27.00    
RIV   no.    5 value from time series:   115.10     for time:  26.00     to  27.00    
RIV   no.    6 value from time series:   115.10     for time:  26.00     to  27.00    
RIV   no.    7 value from time series:   104.00     for time:  26.00     to  27.00    
RIV   no.    8 value from time series:   104.00     for time:  26.00     to  27.00    
RIV   no.    9 value from time series:   113.50     for time:  26.00     to  27.00    
RIV   no.   10 value from time series:   113.50     for time:  26.00     to  27.00    
WEL   no.    1 value from time series:   0.0000     for time:  26.00     to  27.00    
WEL   no.    2 value from time series:   0.0000     for time:  26.00     to  27.00    
RIV   no.    1 value from time series:   101.00     for time:  26.00     to  27.00    
RIV   no.    2 value from time series:   101.00     for time:  26.00     to  27.00    
RIV   no.    3 value from time series:   111.50     for time:  26.00     to  27.00    
RIV   no.    4 value from time series:   111.50     for time:  26.00     to  27.00    
RIV   no.    5 value from time series:   115.10     for time:  26.00     to  27.00    
RIV   no.    6 value from time series:   115.10     for time:  26.00     to  27.00    
RIV   no.    7 value from time series:   104.00     for time:  26.00     to  27.00    
RIV   no.    8 value from time series:   104.00     for time:  26.00     to  27.00    
RIV   no.    9 value from time series:   113.50     for time:  26.00     to  27.00    
RIV   no.   10 value from time series:   113.50     for time:  26.00     to  27.00    

 NO OUTPUT CONTROL FOR STRESS PERIOD    2   TIME STEP   26
WEL   no.    1 value from time series:   0.0000     for time:  27.00     to  28.00    
WEL   no.    2 value from time series:   0.0000     for time:  27.00     to  28.00    
RIV   no.    1 value from time series:   101.00     for time:  27.00     to  28.00    
RIV   no.    2 value from time series:   101.00     for time:  27.00     to  28.00    
RIV   no.    3 value from time series:   111.50     for time:  27.00     to  28.00    
RIV   no.    4 value from time series:   111.50     for time:  27.00     to  28.00    
RIV   no.    5 value from time series:   115.10     for time:  27.00     to  28.00    
RIV   no.    6 value from time series:   115.10     for time:  27.00     to  28.00    
RIV   no.    7 value from time series:   104.00     for time:  27.00     to  28.00    
RIV   no.    8 value from time series:   104.00     for time:  27.00     to  28.00    
RIV   no.    9 value from time series:   113.50     for time:  27.00     to  28.00    
RIV   no.   10 value from time series:   113.50     for time:  27.00     to  28.00    
WEL   no.    1 value from time series:   0.0000     for time:  27.00     to  28.00    
WEL   no.    2 value from time series:   0.0000     for time:  27.00     to  28.00    
RIV   no.    1 value from time series:   101.00     for time:  27.00     to  28.00    
RIV   no.    2 value from time series:   101.00     for time:  27.00     to  28.00    
RIV   no.    3 value from time series:   111.50     for time:  27.00     to  28.00    
RIV   no.    4 value from time series:   111.50     for time:  27.00     to  28.00    
RIV   no.    5 value from time series:   115.10     for time:  27.00     to  28.00    
RIV   no.    6 value from time series:   115.10     for time:  27.00     to  28.00    
RIV   no.    7 value from time series:   104.00     for time:  27.00     to  28.00    
RIV   no.    8 value from time series:   104.00     for time:  27.00     to  28.00    
RIV   no.    9 value from time series:   113.50     for time:  27.00     to  28.00    
RIV   no.   10 value from time series:   113.50     for time:  27.00     to  28.00    

 NO OUTPUT CONTROL FOR STRESS PERIOD    2   TIME STEP   27
WEL   no.    1 value from time series:   0.0000     for time:  28.00     to  29.00    
WEL   no.    2 value from time series:   0.0000     for time:  28.00     to  29.00    
RIV   no.    1 value from time series:   101.00     for time:  28.00     to  29.00    
RIV   no.    2 value from time series:   101.00     for time:  28.00     to  29.00    
RIV   no.    3 value from time series:   111.50     for time:  28.00     to  29.00    
RIV   no.    4 value from time series:   111.50     for time:  28.00     to  29.00    
RIV   no.    5 value from time series:   115.10     for time:  28.00     to  29.00    
RIV   no.    6 value from time series:   115.10     for time:  28.00     to  29.00    
RIV   no.    7 value from time series:   104.00     for time:  28.00     to  29.00    
RIV   no.    8 value from time series:   104.00     for time:  28.00     to  29.00    
RIV   no.    9 value from time series:   113.50     for time:  28.00     to  29.00    
RIV   no.   10 value from time series:   113.50     for time:  28.00     to  29.00    
WEL   no.    1 value from time series:   0.0000     for time:  28.00     to  29.00    
WEL   no.    2 value from time series:   0.0000     for time:  28.00     to  29.00    
RIV   no.    1 value from time series:   101.00     for time:  28.00     to  29.00    
RIV   no.    2 value from time series:   101.00     for time:  28.00     to  29.00    
RIV   no.    3 value from time series:   111.50     for time:  28.00     to  29.00    
RIV   no.    4 value from time series:   111.50     for time:  28.00     to  29.00    
RIV   no.    5 value from time series:   115.10     for time:  28.00     to  29.00    
RIV   no.    6 value from time series:   115.10     for time:  28.00     to  29.00    
RIV   no.    7 value from time series:   104.00     for time:  28.00     to  29.00    
RIV   no.    8 value from time series:   104.00     for time:  28.00     to  29.00    
RIV   no.    9 value from time series:   113.50     for time:  28.00     to  29.00    
RIV   no.   10 value from time series:   113.50     for time:  28.00     to  29.00    

 NO OUTPUT CONTROL FOR STRESS PERIOD    2   TIME STEP   28
WEL   no.    1 value from time series:   0.0000     for time:  29.00     to  30.00    
WEL   no.    2 value from time series:   0.0000     for time:  29.00     to  30.00    
RIV   no.    1 value from time series:   101.00     for time:  29.00     to  30.00    
RIV   no.    2 value from time series:   101.00     for time:  29.00     to  30.00    
RIV   no.    3 value from time series:   111.50     for time:  29.00     to  30.00    
RIV   no.    4 value from time series:   111.50     for time:  29.00     to  30.00    
RIV   no.    5 value from time series:   115.10     for time:  29.00     to  30.00    
RIV   no.    6 value from time series:   115.10     for time:  29.00     to  30.00    
RIV   no.    7 value from time series:   104.00     for time:  29.00     to  30.00    
RIV   no.    8 value from time series:   104.00     for time:  29.00     to  30.00    
RIV   no.    9 value from time series:   113.50     for time:  29.00     to  30.00    
RIV   no.   10 value from time series:   113.50     for time:  29.00     to  30.00    
WEL   no.    1 value from time series:   0.0000     for time:  29.00     to  30.00    
WEL   no.    2 value from time series:   0.0000     for time:  29.00     to  30.00    
RIV   no.    1 value from time series:   101.00     for time:  29.00     to  30.00    
RIV   no.    2 value from time series:   101.00     for time:  29.00     to  30.00    
RIV   no.    3 value from time series:   111.50     for time:  29.00     to  30.00    
RIV   no.    4 value from time series:   111.50     for time:  29.00     to  30.00    
RIV   no.    5 value from time series:   115.10     for time:  29.00     to  30.00    
RIV   no.    6 value from time series:   115.10     for time:  29.00     to  30.00    
RIV   no.    7 value from time series:   104.00     for time:  29.00     to  30.00    
RIV   no.    8 value from time series:   104.00     for time:  29.00     to  30.00    
RIV   no.    9 value from time series:   113.50     for time:  29.00     to  30.00    
RIV   no.   10 value from time series:   113.50     for time:  29.00     to  30.00    

 NO OUTPUT CONTROL FOR STRESS PERIOD    2   TIME STEP   29
WEL   no.    1 value from time series:   0.0000     for time:  30.00     to  31.00    
WEL   no.    2 value from time series:   0.0000     for time:  30.00     to  31.00    
RIV   no.    1 value from time series:   101.00     for time:  30.00     to  31.00    
RIV   no.    2 value from time series:   101.00     for time:  30.00     to  31.00    
RIV   no.    3 value from time series:   111.50     for time:  30.00     to  31.00    
RIV   no.    4 value from time series:   111.50     for time:  30.00     to  31.00    
RIV   no.    5 value from time series:   115.10     for time:  30.00     to  31.00    
RIV   no.    6 value from time series:   115.10     for time:  30.00     to  31.00    
RIV   no.    7 value from time series:   104.00     for time:  30.00     to  31.00    
RIV   no.    8 value from time series:   104.00     for time:  30.00     to  31.00    
RIV   no.    9 value from time series:   113.50     for time:  30.00     to  31.00    
RIV   no.   10 value from time series:   113.50     for time:  30.00     to  31.00    
WEL   no.    1 value from time series:   0.0000     for time:  30.00     to  31.00    
WEL   no.    2 value from time series:   0.0000     for time:  30.00     to  31.00    
RIV   no.    1 value from time series:   101.00     for time:  30.00     to  31.00    
RIV   no.    2 value from time series:   101.00     for time:  30.00     to  31.00    
RIV   no.    3 value from time series:   111.50     for time:  30.00     to  31.00    
RIV   no.    4 value from time series:   111.50     for time:  30.00     to  31.00    
RIV   no.    5 value from time series:   115.10     for time:  30.00     to  31.00    
RIV   no.    6 value from time series:   115.10     for time:  30.00     to  31.00    
RIV   no.    7 value from time series:   104.00     for time:  30.00     to  31.00    
RIV   no.    8 value from time series:   104.00     for time:  30.00     to  31.00    
RIV   no.    9 value from time series:   113.50     for time:  30.00     to  31.00    
RIV   no.   10 value from time series:   113.50     for time:  30.00     to  31.00    

 NO OUTPUT CONTROL FOR STRESS PERIOD    2   TIME STEP   30
WEL   no.    1 value from time series:   0.0000     for time:  31.00     to  32.00    
WEL   no.    2 value from time series:   0.0000     for time:  31.00     to  32.00    
RIV   no.    1 value from time series:   101.00     for time:  31.00     to  32.00    
RIV   no.    2 value from time series:   101.00     for time:  31.00     to  32.00    
RIV   no.    3 value from time series:   111.50     for time:  31.00     to  32.00    
RIV   no.    4 value from time series:   111.50     for time:  31.00     to  32.00    
RIV   no.    5 value from time series:   115.10     for time:  31.00     to  32.00    
RIV   no.    6 value from time series:   115.10     for time:  31.00     to  32.00    
RIV   no.    7 value from time series:   104.00     for time:  31.00     to  32.00    
RIV   no.    8 value from time series:   104.00     for time:  31.00     to  32.00    
RIV   no.    9 value from time series:   113.50     for time:  31.00     to  32.00    
RIV   no.   10 value from time series:   113.50     for time:  31.00     to  32.00    
WEL   no.    1 value from time series:   0.0000     for time:  31.00     to  32.00    
WEL   no.    2 value from time series:   0.0000     for time:  31.00     to  32.00    
RIV   no.    1 value from time series:   101.00     for time:  31.00     to  32.00    
RIV   no.    2 value from time series:   101.00     for time:  31.00     to  32.00    
RIV   no.    3 value from time series:   111.50     for time:  31.00     to  32.00    
RIV   no.    4 value from time series:   111.50     for time:  31.00     to  32.00    
RIV   no.    5 value from time series:   115.10     for time:  31.00     to  32.00    
RIV   no.    6 value from time series:   115.10     for time:  31.00     to  32.00    
RIV   no.    7 value from time series:   104.00     for time:  31.00     to  32.00    
RIV   no.    8 value from time series:   104.00     for time:  31.00     to  32.00    
RIV   no.    9 value from time series:   113.50     for time:  31.00     to  32.00    
RIV   no.   10 value from time series:   113.50     for time:  31.00     to  32.00    

 OUTPUT CONTROL FOR STRESS PERIOD    2   TIME STEP   31
    PRINT BUDGET
    SAVE BUDGET
    SAVE HEAD
    SAVE HEAD FOR ALL LAYERS
 UBDSV1 SAVING          STORAGE ON UNIT   1016 AT TIME STEP     31, STRESS PERIOD      2
 UBDSV1 SAVING FLOW RIGHT FACE  ON UNIT   1016 AT TIME STEP     31, STRESS PERIOD      2
 UBDSV1 SAVING FLOW FRONT FACE  ON UNIT   1016 AT TIME STEP     31, STRESS PERIOD      2
 UBDSV1 SAVING FLOW LOWER FACE  ON UNIT   1016 AT TIME STEP     31, STRESS PERIOD      2
 UBDSV4 SAVING WELLS NEAR RIVER ON UNIT   1016 AT TIME STEP     31, STRESS PERIOD      2

 WELLS NEAR RIVER   PERIOD  2   STEP 31
 BOUNDARY      1   LAYER   2   ROW     3   COL     4   RATE     0.00000      WELL_1
 BOUNDARY      2   LAYER   2   ROW     8   COL     4   RATE     0.00000      WELL_2
 BOUNDARY      3   LAYER   2   ROW     4   COL     6   RATE   -10.00000    
 BOUNDARY      4   LAYER   2   ROW     5   COL     8   RATE    -20.0000    
 BOUNDARY      5   LAYER   2   ROW     2   COL     9   RATE    -40.0000    
 UBDSV4 SAVING RIVER            ON UNIT   1016 AT TIME STEP     31, STRESS PERIOD      2

 RIVER              PERIOD  2   STEP 31
 BOUNDARY      1   LAYER   1   ROW     1   COL    15   RATE    -4889.16    
 BOUNDARY      2   LAYER   1   ROW     2   COL    15   RATE    -5991.52      RIV2
 BOUNDARY      3   LAYER   1   ROW     3   COL    15   RATE    -2187.14      RIV3
 BOUNDARY      4   LAYER   1   ROW     4   COL    15   RATE    -3642.52    
 BOUNDARY      5   LAYER   1   ROW     5   COL    15   RATE    -2289.43    
 BOUNDARY      6   LAYER   1   ROW     6   COL    15   RATE    -1649.30    
 BOUNDARY      7   LAYER   1   ROW     7   COL    15   RATE    -6148.15      RIVX
 BOUNDARY      8   LAYER   1   ROW     8   COL    15   RATE    -5973.16      RIVX
 BOUNDARY      9   LAYER   1   ROW     9   COL    15   RATE    -2137.60      RIVX
 BOUNDARY     10   LAYER   1   ROW    10   COL    15   RATE    -3020.72    

 GHB LAKES          PERIOD  2   STEP 31
 BOUNDARY      1   LAYER   1   ROW     3   COL     1   RATE    -14452.1    
 BOUNDARY      2   LAYER   1   ROW     7   COL     1   RATE    -1839.54      GHB2_UPPER
 BOUNDARY      3   LAYER   1   ROW     7   COL     1   RATE    -13208.7      GHB2_LOWER
 UBDSV4 SAVING RECHARGE         ON UNIT   1016 AT TIME STEP     31, STRESS PERIOD      2

 RECHARGE           PERIOD  2   STEP 31
 BOUNDARY      1   LAYER   1   ROW     1   COL     1   RATE     565.625    
 BOUNDARY      2   LAYER   1   ROW     1   COL     2   RATE     565.625    
 BOUNDARY      3   LAYER   1   ROW     1   COL     3   RATE     565.625    
 BOUNDARY      4   LAYER   1   ROW     1   COL     4   RATE     565.625    
 BOUNDARY      5   LAYER   1   ROW     1   COL     5   RATE     565.625    
 BOUNDARY      6   LAYER   1   ROW     1   COL     6   RATE     565.625    
 BOUNDARY      7   LAYER   1   ROW     1   COL     7   RATE     565.625    
 BOUNDARY      8   LAYER   1   ROW     1   COL     8   RATE     565.625    
 BOUNDARY      9   LAYER   1   ROW     1   COL     9   RATE     565.625    
 BOUNDARY     10   LAYER   1   ROW     1   COL    10   RATE     565.625    
 BOUNDARY     11   LAYER   1   ROW     1   COL    11   RATE     565.625    
 BOUNDARY     12   LAYER   1   ROW     1   COL    12   RATE     565.625    
 BOUNDARY     13   LAYER   1   ROW     1   COL    13   RATE     565.625    
 BOUNDARY     14   LAYER   1   ROW     1   COL    14   RATE     565.625    
 BOUNDARY     15   LAYER   1   ROW     1   COL    15   RATE     565.625    
 BOUNDARY     16   LAYER   1   ROW     2   COL     1   RATE     565.625    
 BOUNDARY     17   LAYER   1   ROW     2   COL     2   RATE     565.625    
 BOUNDARY     18   LAYER   1   ROW     2   COL     3   RATE     565.625    
 BOUNDARY     19   LAYER   1   ROW     2   COL     4   RATE     565.625    
 BOUNDARY     20   LAYER   1   ROW     2   COL     5   RATE     565.625    
 BOUNDARY     21   LAYER   1   ROW     2   COL     6   RATE     565.625    
 BOUNDARY     22   LAYER   1   ROW     2   COL     7   RATE     565.625    
 BOUNDARY     23   LAYER   1   ROW     2   COL     8   RATE     565.625    
 BOUNDARY     24   LAYER   1   ROW     2   COL     9   RATE     565.625    
 BOUNDARY     25   LAYER   1   ROW     2   COL    10   RATE     565.625    
 BOUNDARY     26   LAYER   1   ROW     2   COL    11   RATE     565.625    
 BOUNDARY     27   LAYER   1   ROW     2   COL    12   RATE     565.625    
 BOUNDARY     28   LAYER   1   ROW     2   COL    13   RATE     565.625    
 BOUNDARY     29   LAYER   1   ROW     2   COL    14   RATE     565.625    
 BOUNDARY     30   LAYER   1   ROW     2   COL    15   RATE     565.625    
 BOUNDARY     31   LAYER   1   ROW     3   COL     1   RATE     565.625    
 BOUNDARY     32   LAYER   1   ROW     3   COL     2   RATE     565.625    
 BOUNDARY     33   LAYER   1   ROW     3   COL     3   RATE     565.625    
 BOUNDARY     34   LAYER   1   ROW     3   COL     4   RATE     565.625    
 BOUNDARY     35   LAYER   1   ROW     3   COL     5   RATE     565.625    
 BOUNDARY     36   LAYER   1   ROW     3   COL     6   RATE     565.625    
 BOUNDARY     37   LAYER   1   ROW     3   COL     7   RATE     565.625    
 BOUNDARY     38   LAYER   1   ROW     3   COL     8   RATE     565.625    
 BOUNDARY     39   LAYER   1   ROW     3   COL     9   RATE     565.625    
 BOUNDARY     40   LAYER   1   ROW     3   COL    10   RATE     565.625    
 BOUNDARY     41   LAYER   1   ROW     3   COL    11   RATE     565.625    
 BOUNDARY     42   LAYER   1   ROW     3   COL    12   RATE     565.625    
 BOUNDARY     43   LAYER   1   ROW     3   COL    13   RATE     565.625    
 BOUNDARY     44   LAYER   1   ROW     3   COL    14   RATE     565.625    
 BOUNDARY     45   LAYER   1   ROW     3   COL    15   RATE     565.625    
 BOUNDARY     46   LAYER   1   ROW     4   COL     1   RATE     565.625    
 BOUNDARY     47   LAYER   1   ROW     4   COL     2   RATE     565.625    
 BOUNDARY     48   LAYER   1   ROW     4   COL     3   RATE     565.625    
 BOUNDARY     49   LAYER   1   ROW     4   COL     4   RATE     565.625    
 BOUNDARY     50   LAYER   1   ROW     4   COL     5   RATE     565.625    
 BOUNDARY     51   LAYER   1   ROW     4   COL     6   RATE     565.625    
 BOUNDARY     52   LAYER   1   ROW     4   COL     7   RATE     565.625    
 BOUNDARY     53   LAYER   1   ROW     4   COL     8   RATE     565.625    
 BOUNDARY     54   LAYER   1   ROW     4   COL     9   RATE     565.625    
 BOUNDARY     55   LAYER   1   ROW     4   COL    10   RATE     565.625    
 BOUNDARY     56   LAYER   1   ROW     4   COL    11   RATE     565.625    
 BOUNDARY     57   LAYER   1   ROW     4   COL    12   RATE     565.625    
 BOUNDARY     58   LAYER   1   ROW     4   COL    13   RATE     565.625    
 BOUNDARY     59   LAYER   1   ROW     4   COL    14   RATE     565.625    
 BOUNDARY     60   LAYER   1   ROW     4   COL    15   RATE     565.625    
 BOUNDARY     61   LAYER   1   ROW     5   COL     1   RATE     565.625    
 BOUNDARY     62   LAYER   1   ROW     5   COL     2   RATE     565.625    
 BOUNDARY     63   LAYER   1   ROW     5   COL     3   RATE     565.625    
 BOUNDARY     64   LAYER   1   ROW     5   COL     4   RATE     565.625    
 BOUNDARY     65   LAYER   1   ROW     5   COL     5   RATE     565.625    
 BOUNDARY     66   LAYER   1   ROW     5   COL     6   RATE     565.625    
 BOUNDARY     67   LAYER   1   ROW     5   COL     7   RATE     565.625    
 BOUNDARY     68   LAYER   1   ROW     5   COL     8   RATE     565.625    
 BOUNDARY     69   LAYER   1   ROW     5   COL     9   RATE     565.625    
 BOUNDARY     70   LAYER   1   ROW     5   COL    10   RATE     565.625    
 BOUNDARY     71   LAYER   1   ROW     5   COL    11   RATE     565.625    
 BOUNDARY     72   LAYER   1   ROW     5   COL    12   RATE     565.625    
 BOUNDARY     73   LAYER   1   ROW     5   COL    13   RATE     565.625    
 BOUNDARY     74   LAYER   1   ROW     5   COL    14   RATE     565.625    
 BOUNDARY     75   LAYER   1   ROW     5   COL    15   RATE     565.625    
 BOUNDARY     76   LAYER   1   ROW     6   COL     1   RATE     565.625    
 BOUNDARY     77   LAYER   1   ROW     6   COL     2   RATE     565.625    
 BOUNDARY     78   LAYER   1   ROW     6   COL     3   RATE     565.625    
 BOUNDARY     79   LAYER   1   ROW     6   COL     4   RATE     565.625    
 BOUNDARY     80   LAYER   1   ROW     6   COL     5   RATE     565.625    
 BOUNDARY     81   LAYER   1   ROW     6   COL     6   RATE     565.625    
 BOUNDARY     82   LAYER   1   ROW     6   COL     7   RATE     565.625    
 BOUNDARY     83   LAYER   1   ROW     6   COL     8   RATE     565.625    
 BOUNDARY     84   LAYER   1   ROW     6   COL     9   RATE     565.625    
 BOUNDARY     85   LAYER   1   ROW     6   COL    10   RATE     565.625    
 BOUNDARY     86   LAYER   1   ROW     6   COL    11   RATE     565.625    
 BOUNDARY     87   LAYER   1   ROW     6   COL    12   RATE     565.625    
 BOUNDARY     88   LAYER   1   ROW     6   COL    13   RATE     565.625    
 BOUNDARY     89   LAYER   1   ROW     6   COL    14   RATE     565.625    
 BOUNDARY     90   LAYER   1   ROW     6   COL    15   RATE     565.625    
 BOUNDARY     91   LAYER   1   ROW     7   COL     1   RATE     565.625    
 BOUNDARY     92   LAYER   1   ROW     7   COL     2   RATE     565.625    
 BOUNDARY     93   LAYER   1   ROW     7   COL     3   RATE     565.625    
 BOUNDARY     94   LAYER   1   ROW     7   COL     4   RATE     565.625    
 BOUNDARY     95   LAYER   1   ROW     7   COL     5   RATE     565.625    
 BOUNDARY     96   LAYER   1   ROW     7   COL     6   RATE     565.625    
 BOUNDARY     97   LAYER   1   ROW     7   COL     7   RATE     565.625    
 BOUNDARY     98   LAYER   1   ROW     7   COL     8   RATE     565.625    
 BOUNDARY     99   LAYER   1   ROW     7   COL     9   RATE     565.625    
 BOUNDARY    100   LAYER   1   ROW     7   COL    10   RATE     565.625    
 BOUNDARY    101   LAYER   1   ROW     7   COL    11   RATE     565.625    
 BOUNDARY    102   LAYER   1   ROW     7   COL    12   RATE     565.625    
 BOUNDARY    103   LAYER   1   ROW     7   COL    13   RATE     565.625    
 BOUNDARY    104   LAYER   1   ROW     7   COL    14   RATE     565.625    
 BOUNDARY    105   LAYER   1   ROW     7   COL    15   RATE     565.625    
 BOUNDARY    106   LAYER   1   ROW     8   COL     1   RATE     565.625    
 BOUNDARY    107   LAYER   1   ROW     8   COL     2   RATE     565.625    
 BOUNDARY    108   LAYER   1   ROW     8   COL     3   RATE     565.625    
 BOUNDARY    109   LAYER   1   ROW     8   COL     4   RATE     565.625    
 BOUNDARY    110   LAYER   1   ROW     8   COL     5   RATE     565.625    
 BOUNDARY    111   LAYER   1   ROW     8   COL     6   RATE     565.625    
 BOUNDARY    112   LAYER   1   ROW     8   COL     7   RATE     565.625    
 BOUNDARY    113   LAYER   1   ROW     8   COL     8   RATE     565.625    
 BOUNDARY    114   LAYER   1   ROW     8   COL     9   RATE     565.625    
 BOUNDARY    115   LAYER   1   ROW     8   COL    10   RATE     565.625    
 BOUNDARY    116   LAYER   1   ROW     8   COL    11   RATE     565.625    
 BOUNDARY    117   LAYER   1   ROW     8   COL    12   RATE     565.625    
 BOUNDARY    118   LAYER   1   ROW     8   COL    13   RATE     565.625    
 BOUNDARY    119   LAYER   1   ROW     8   COL    14   RATE     565.625    
 BOUNDARY    120   LAYER   1   ROW     8   COL    15   RATE     565.625    
 BOUNDARY    121   LAYER   1   ROW     9   COL     1   RATE     565.625    
 BOUNDARY    122   LAYER   1   ROW     9   COL     2   RATE     565.625    
 BOUNDARY    123   LAYER   1   ROW     9   COL     3   RATE     565.625    
 BOUNDARY    124   LAYER   1   ROW     9   COL     4   RATE     565.625    
 BOUNDARY    125   LAYER   1   ROW     9   COL     5   RATE     565.625    
 BOUNDARY    126   LAYER   1   ROW     9   COL     6   RATE     565.625    
 BOUNDARY    127   LAYER   1   ROW     9   COL     7   RATE     565.625    
 BOUNDARY    128   LAYER   1   ROW     9   COL     8   RATE     565.625    
 BOUNDARY    129   LAYER   1   ROW     9   COL     9   RATE     565.625    
 BOUNDARY    130   LAYER   1   ROW     9   COL    10   RATE     565.625    
 BOUNDARY    131   LAYER   1   ROW     9   COL    11   RATE     565.625    
 BOUNDARY    132   LAYER   1   ROW     9   COL    12   RATE     565.625    
 BOUNDARY    133   LAYER   1   ROW     9   COL    13   RATE     565.625    
 BOUNDARY    134   LAYER   1   ROW     9   COL    14   RATE     565.625    
 BOUNDARY    135   LAYER   1   ROW     9   COL    15   RATE     565.625    
 BOUNDARY    136   LAYER   1   ROW    10   COL     1   RATE     565.625    
 BOUNDARY    137   LAYER   1   ROW    10   COL     2   RATE     565.625    
 BOUNDARY    138   LAYER   1   ROW    10   COL     3   RATE     565.625    
 BOUNDARY    139   LAYER   1   ROW    10   COL     4   RATE     565.625    
 BOUNDARY    140   LAYER   1   ROW    10   COL     5   RATE     565.625    
 BOUNDARY    141   LAYER   1   ROW    10   COL     6   RATE     565.625    
 BOUNDARY    142   LAYER   1   ROW    10   COL     7   RATE     565.625    
 BOUNDARY    143   LAYER   1   ROW    10   COL     8   RATE     565.625    
 BOUNDARY    144   LAYER   1   ROW    10   COL     9   RATE     565.625    
 BOUNDARY    145   LAYER   1   ROW    10   COL    10   RATE     565.625    
 BOUNDARY    146   LAYER   1   ROW    10   COL    11   RATE     565.625    
 BOUNDARY    147   LAYER   1   ROW    10   COL    12   RATE     565.625    
 BOUNDARY    148   LAYER   1   ROW    10   COL    13   RATE     565.625    
 BOUNDARY    149   LAYER   1   ROW    10   COL    14   RATE     565.625    
 BOUNDARY    150   LAYER   1   ROW    10   COL    15   RATE     565.625    
 UBDSV4 SAVING ET SEGS          ON UNIT   1016 AT TIME STEP     31, STRESS PERIOD      2

 ET SEGS            PERIOD  2   STEP 31
 BOUNDARY      1   LAYER   1   ROW     1   COL     1   RATE    -1.75225    
 BOUNDARY      2   LAYER   1   ROW     1   COL     2   RATE    -7.34609    
 BOUNDARY      3   LAYER   1   ROW     1   COL     3   RATE    -40.3751    
 BOUNDARY      4   LAYER   1   ROW     1   COL     4   RATE    -81.5625    
 BOUNDARY      5   LAYER   1   ROW     1   COL     5   RATE    -81.5625    
 BOUNDARY      6   LAYER   1   ROW     1   COL     6   RATE    -81.5625    
 BOUNDARY      7   LAYER   1   ROW     1   COL     7   RATE    -81.5625    
 BOUNDARY      8   LAYER   1   ROW     1   COL     8   RATE    -81.5625    
 BOUNDARY      9   LAYER   1   ROW     1   COL     9   RATE    -81.5625    
 BOUNDARY     10   LAYER   1   ROW     1   COL    10   RATE    -81.5625    
 BOUNDARY     11   LAYER   1   ROW     1   COL    11   RATE    -81.5625    
 BOUNDARY     12   LAYER   1   ROW     1   COL    12   RATE    -13.7247    
 BOUNDARY     13   LAYER   1   ROW     1   COL    13   RATE     0.00000    
 BOUNDARY     14   LAYER   1   ROW     1   COL    14   RATE     0.00000    
 BOUNDARY     15   LAYER   1   ROW     1   COL    15   RATE     0.00000    
 BOUNDARY     16   LAYER   1   ROW     2   COL     1   RATE     0.00000    
 BOUNDARY     17   LAYER   1   ROW     2   COL     2   RATE    -3.66100    
 BOUNDARY     18   LAYER   1   ROW     2   COL     3   RATE    -23.1046    
 BOUNDARY     19   LAYER   1   ROW     2   COL     4   RATE    -81.5625    
 BOUNDARY     20   LAYER   1   ROW     2   COL     5   RATE    -81.5625    
 BOUNDARY     21   LAYER   1   ROW     2   COL     6   RATE    -81.5625    
 BOUNDARY     22   LAYER   1   ROW     2   COL     7   RATE    -81.5625    
 BOUNDARY     23   LAYER   1   ROW     2   COL     8   RATE    -81.5625    
 BOUNDARY     24   LAYER   1   ROW     2   COL     9   RATE    -81.5625    
 BOUNDARY     25   LAYER   1   ROW     2   COL    10   RATE    -81.5625    
 BOUNDARY     26   LAYER   1   ROW     2   COL    11   RATE    -81.5625    
 BOUNDARY     27   LAYER   1   ROW     2   COL    12   RATE    -15.1451    
 BOUNDARY     28   LAYER   1   ROW     2   COL    13   RATE   -8.459657E-02
 BOUNDARY     29   LAYER   1   ROW     2   COL    14   RATE     0.00000    
 BOUNDARY     30   LAYER   1   ROW     2   COL    15   RATE     0.00000    
 BOUNDARY     31   LAYER   1   ROW     3   COL     1   RATE     0.00000    
 BOUNDARY     32   LAYER   1   ROW     3   COL     2   RATE     0.00000    
 BOUNDARY     33   LAYER   1   ROW     3   COL     3   RATE    -18.2128    
 BOUNDARY     34   LAYER   1   ROW     3   COL     4   RATE    -81.5625    
 BOUNDARY     35   LAYER   1   ROW     3   COL     5   RATE    -81.5625    
 BOUNDARY     36   LAYER   1   ROW     3   COL     6   RATE    -81.5625    
 BOUNDARY     37   LAYER   1   ROW     3   COL     7   RATE    -81.5625    
 BOUNDARY     38   LAYER   1   ROW     3   COL     8   RATE    -81.5625    
 BOUNDARY     39   LAYER   1   ROW     3   COL     9   RATE    -81.5625    
 BOUNDARY     40   LAYER   1   ROW     3   COL    10   RATE    -81.5625    
 BOUNDARY     41   LAYER   1   ROW     3   COL    11   RATE    -81.5625    
 BOUNDARY     42   LAYER   1   ROW     3   COL    12   RATE    -17.5411    
 BOUNDARY     43   LAYER   1   ROW     3   COL    13   RATE    -1.54251    
 BOUNDARY     44   LAYER   1   ROW     3   COL    14   RATE     0.00000    
 BOUNDARY     45   LAYER   1   ROW     3   COL    15   RATE     0.00000    
 BOUNDARY     46   LAYER   1   ROW     4   COL     1   RATE     0.00000    
 BOUNDARY     47   LAYER   1   ROW     4   COL     2   RATE    -2.42542    
 BOUNDARY     48   LAYER   1   ROW     4   COL     3   RATE    -21.3683    
 BOUNDARY     49   LAYER   1   ROW     4   COL     4   RATE    -81.5625    
 BOUNDARY     50   LAYER   1   ROW     4   COL     5   RATE    -81.5625    
 BOUNDARY     51   LAYER   1   ROW     4   COL     6   RATE    -81.5625    
 BOUNDARY     52   LAYER   1   ROW     4   COL     7   RATE    -81.5625    
 BOUNDARY     53   LAYER   1   ROW     4   COL     8   RATE    -81.5625    
 BOUNDARY     54   LAYER   1   ROW     4   COL     9   RATE    -81.5625    
 BOUNDARY     55   LAYER   1   ROW     4   COL    10   RATE    -81.5625    
 BOUNDARY     56   LAYER   1   ROW     4   COL    11   RATE    -81.5625    
 BOUNDARY     57   LAYER   1   ROW     4   COL    12   RATE    -19.8280    
 BOUNDARY     58   LAYER   1   ROW     4   COL    13   RATE    -2.73655    
 BOUNDARY     59   LAYER   1   ROW     4   COL    14   RATE     0.00000    
 BOUNDARY     60   LAYER   1   ROW     4   COL    15   RATE     0.00000    
 BOUNDARY     61   LAYER   1   ROW     5   COL     1   RATE     0.00000    
 BOUNDARY     62   LAYER   1   ROW     5   COL     2   RATE    -4.85177    
 BOUNDARY     63   LAYER   1   ROW     5   COL     3   RATE    -25.2846    
 BOUNDARY     64   LAYER   1   ROW     5   COL     4   RATE    -81.5625    
 BOUNDARY     65   LAYER   1   ROW     5   COL     5   RATE    -81.5625    
 BOUNDARY     66   LAYER   1   ROW     5   COL     6   RATE    -81.5625    
 BOUNDARY     67   LAYER   1   ROW     5   COL     7   RATE    -81.5625    
 BOUNDARY     68   LAYER   1   ROW     5   COL     8   RATE    -81.5625    
 BOUNDARY     69   LAYER   1   ROW     5   COL     9   RATE    -81.5625    
 BOUNDARY     70   LAYER   1   ROW     5   COL    10   RATE    -81.5625    
 BOUNDARY     71   LAYER   1   ROW     5   COL    11   RATE    -81.5625    
 BOUNDARY     72   LAYER   1   ROW     5   COL    12   RATE    -21.4117    
 BOUNDARY     73   LAYER   1   ROW     5   COL    13   RATE    -3.47889    
 BOUNDARY     74   LAYER   1   ROW     5   COL    14   RATE     0.00000    
 BOUNDARY     75   LAYER   1   ROW     5   COL    15   RATE     0.00000    
 BOUNDARY     76   LAYER   1   ROW     6   COL     1   RATE     0.00000    
 BOUNDARY     77   LAYER   1   ROW     6   COL     2   RATE    -3.68605    
 BOUNDARY     78   LAYER   1   ROW     6   COL     3   RATE    -28.4577    
 BOUNDARY     79   LAYER   1   ROW     6   COL     4   RATE    -81.5625    
 BOUNDARY     80   LAYER   1   ROW     6   COL     5   RATE    -81.5625    
 BOUNDARY     81   LAYER   1   ROW     6   COL     6   RATE    -81.5625    
 BOUNDARY     82   LAYER   1   ROW     6   COL     7   RATE    -81.5625    
 BOUNDARY     83   LAYER   1   ROW     6   COL     8   RATE    -81.5625    
 BOUNDARY     84   LAYER   1   ROW     6   COL     9   RATE    -81.5625    
 BOUNDARY     85   LAYER   1   ROW     6   COL    10   RATE    -81.5625    
 BOUNDARY     86   LAYER   1   ROW     6   COL    11   RATE    -81.5625    
 BOUNDARY     87   LAYER   1   ROW     6   COL    12   RATE    -21.9422    
 BOUNDARY     88   LAYER   1   ROW     6   COL    13   RATE    -3.44560    
 BOUNDARY     89   LAYER   1   ROW     6   COL    14   RATE     0.00000    
 BOUNDARY     90   LAYER   1   ROW     6   COL    15   RATE     0.00000    
 BOUNDARY     91   LAYER   1   ROW     7   COL     1   RATE     0.00000    
 BOUNDARY     92   LAYER   1   ROW     7   COL     2   RATE   -0.834427    
 BOUNDARY     93   LAYER   1   ROW     7   COL     3   RATE    -34.1362    
 BOUNDARY     94   LAYER   1   ROW     7   COL     4   RATE    -81.5625    
 BOUNDARY     95   LAYER   1   ROW     7   COL     5   RATE    -81.5625    
 BOUNDARY     96   LAYER   1   ROW     7   COL     6   RATE    -81.5625    
 BOUNDARY     97   LAYER   1   ROW     7   COL     7   RATE    -81.5625    
 BOUNDARY     98   LAYER   1   ROW     7   COL     8   RATE    -81.5625    
 BOUNDARY     99   LAYER   1   ROW     7   COL     9   RATE    -81.5625    
 BOUNDARY    100   LAYER   1   ROW     7   COL    10   RATE    -81.5625    
 BOUNDARY    101   LAYER   1   ROW     7   COL    11   RATE    -81.5625    
 BOUNDARY    102   LAYER   1   ROW     7   COL    12   RATE    -21.8097    
 BOUNDARY    103   LAYER   1   ROW     7   COL    13   RATE    -2.84851    
 BOUNDARY    104   LAYER   1   ROW     7   COL    14   RATE     0.00000    
 BOUNDARY    105   LAYER   1   ROW     7   COL    15   RATE     0.00000    
 BOUNDARY    106   LAYER   1   ROW     8   COL     1   RATE     0.00000    
 BOUNDARY    107   LAYER   1   ROW     8   COL     2   RATE    -9.22259    
 BOUNDARY    108   LAYER   1   ROW     8   COL     3   RATE    -81.5625    
 BOUNDARY    109   LAYER   1   ROW     8   COL     4   RATE    -81.5625    
 BOUNDARY    110   LAYER   1   ROW     8   COL     5   RATE    -81.5625    
 BOUNDARY    111   LAYER   1   ROW     8   COL     6   RATE    -81.5625    
 BOUNDARY    112   LAYER   1   ROW     8   COL     7   RATE    -81.5625    
 BOUNDARY    113   LAYER   1   ROW     8   COL     8   RATE    -81.5625    
 BOUNDARY    114   LAYER   1   ROW     8   COL     9   RATE    -81.5625    
 BOUNDARY    115   LAYER   1   ROW     8   COL    10   RATE    -81.5625    
 BOUNDARY    116   LAYER   1   ROW     8   COL    11   RATE    -81.5625    
 BOUNDARY    117   LAYER   1   ROW     8   COL    12   RATE    -22.1259    
 BOUNDARY    118   LAYER   1   ROW     8   COL    13   RATE    -2.85089    
 BOUNDARY    119   LAYER   1   ROW     8   COL    14   RATE     0.00000    
 BOUNDARY    120   LAYER   1   ROW     8   COL    15   RATE     0.00000    
 BOUNDARY    121   LAYER   1   ROW     9   COL     1   RATE    -15.4096    
 BOUNDARY    122   LAYER   1   ROW     9   COL     2   RATE    -49.7845    
 BOUNDARY    123   LAYER   1   ROW     9   COL     3   RATE    -81.5625    
 BOUNDARY    124   LAYER   1   ROW     9   COL     4   RATE    -81.5625    
 BOUNDARY    125   LAYER   1   ROW     9   COL     5   RATE    -81.5625    
 BOUNDARY    126   LAYER   1   ROW     9   COL     6   RATE    -81.5625    
 BOUNDARY    127   LAYER   1   ROW     9   COL     7   RATE    -81.5625    
 BOUNDARY    128   LAYER   1   ROW     9   COL     8   RATE    -81.5625    
 BOUNDARY    129   LAYER   1   ROW     9   COL     9   RATE    -81.5625    
 BOUNDARY    130   LAYER   1   ROW     9   COL    10   RATE    -81.5625    
 BOUNDARY    131   LAYER   1   ROW     9   COL    11   RATE    -81.5625    
 BOUNDARY    132   LAYER   1   ROW     9   COL    12   RATE    -23.0216    
 BOUNDARY    133   LAYER   1   ROW     9   COL    13   RATE    -3.52009    
 BOUNDARY    134   LAYER   1   ROW     9   COL    14   RATE     0.00000    
 BOUNDARY    135   LAYER   1   ROW     9   COL    15   RATE     0.00000    
 BOUNDARY    136   LAYER   1   ROW    10   COL     1   RATE    -56.5205    
 BOUNDARY    137   LAYER   1   ROW    10   COL     2   RATE    -81.5625    
 BOUNDARY    138   LAYER   1   ROW    10   COL     3   RATE    -81.5625    
 BOUNDARY    139   LAYER   1   ROW    10   COL     4   RATE    -81.5625    
 BOUNDARY    140   LAYER   1   ROW    10   COL     5   RATE    -81.5625    
 BOUNDARY    141   LAYER   1   ROW    10   COL     6   RATE    -81.5625    
 BOUNDARY    142   LAYER   1   ROW    10   COL     7   RATE    -81.5625    
 BOUNDARY    143   LAYER   1   ROW    10   COL     8   RATE    -81.5625    
 BOUNDARY    144   LAYER   1   ROW    10   COL     9   RATE    -81.5625    
 BOUNDARY    145   LAYER   1   ROW    10   COL    10   RATE    -81.5625    
 BOUNDARY    146   LAYER   1   ROW    10   COL    11   RATE    -81.5625    
 BOUNDARY    147   LAYER   1   ROW    10   COL    12   RATE    -23.6707    
 BOUNDARY    148   LAYER   1   ROW    10   COL    13   RATE    -3.95024    
 BOUNDARY    149   LAYER   1   ROW    10   COL    14   RATE     0.00000    
 BOUNDARY    150   LAYER   1   ROW    10   COL    15   RATE     0.00000    

 HEAD WILL BE SAVED ON UNIT 1017 AT END OF TIME STEP   31, STRESS PERIOD    2
1
  VOLUME BUDGET FOR ENTIRE MODEL AT END OF TIME STEP   31, STRESS PERIOD   2
  ------------------------------------------------------------------------------

     CUMULATIVE VOLUME      L**3       RATES FOR THIS TIME STEP      L**3/T
     ------------------                 ------------------------

           IN:                                      IN:
           ---                                      ---
             STORAGE =       44530.7235               STORAGE =         859.1636
    WELLS NEAR RIVER =           0.0000      WELLS NEAR RIVER =           0.0000
               RIVER =           0.0000                 RIVER =           0.0000
           GHB LAKES =           0.0000             GHB LAKES =           0.0000
            RECHARGE =     2560000.0000              RECHARGE =       84843.7500
             ET SEGS =           0.0000               ET SEGS =           0.0000

            TOTAL IN =     2604530.7235              TOTAL IN =       85702.9136

          OUT:                                     OUT:
          ----                                     ----
             STORAGE =      315147.3166               STORAGE =       10781.5570
    WELLS NEAR RIVER =        2170.0000      WELLS NEAR RIVER =          70.0000
               RIVER =     1114532.0735                 RIVER =       37928.7056
           GHB LAKES =      942577.4356             GHB LAKES =       29500.2888
            RECHARGE =           0.0000              RECHARGE =           0.0000
             ET SEGS =      230103.8986               ET SEGS =        7422.3622

           TOTAL OUT =     2604530.7243             TOTAL OUT =       85702.9136

            IN - OUT =      -8.2675E-04              IN - OUT =       9.7735E-07

 PERCENT DISCREPANCY =          -0.00     PERCENT DISCREPANCY =           0.00






         TIME SUMMARY AT END OF TIME STEP   31 IN STRESS PERIOD    2
                    SECONDS     MINUTES      HOURS       DAYS        YEARS
                    -----------------------------------------------------------
   TIME STEP LENGTH  86400.      1440.0      24.000     1.00000     2.73785E-03
 STRESS PERIOD TIME 2.67840E+06  44640.      744.00      31.000     8.48734E-02
         TOTAL TIME 2.76480E+06  46080.      768.00      32.000     8.76112E-02

 REUSING STORAGE VALUES FROM LAST STRESS PERIOD
 #        k         i         j      flow      var1    var2 var3

 WEL NO.  LAYER   ROW    COL     STRESS RATE  BOUNDARY NAME         VAR1            VAR2            VAR3            
 -------------------------------------------------------------------------------------------------------------------
      1      1      2      3      -50.00                           -1.0000          -2.000          -3.000    
      2      2      3      4       0.000      WELL_1                1.0000           2.000           3.000    
      3      2      8      4       0.000      WELL_2                 4.000           5.000           6.000    

 REUSING RIVS FROM LAST STRESS PERIOD

 GHB NO.  LAYER   ROW    COL       STAGE         CONDUCTANCE  BOUNDARY NAME         
 -----------------------------------------------------------------------------------
      1      1      3      1      100.00           1503.                      
      2      1      7      1       110.0           1403.      GHB2_UPPER      
      3      1      7      1       85.00           503.0      GHB2_LOWER      

 REUSING RCHS FROM LAST STRESS PERIOD
 #BEGIN PERIOD 2
 #  NLARRAY
 #    CONSTANT 1
 #  surface
 #    constant 140.0
 #  rate TimeArraySeries EtsArraySeries
 #  depth
 #    constant 10.0
 #  pxdp
 #    constant 0.2
 #  petm
 #    constant 0.3
 #  pxdp
 #    constant 0.5
 #  petm
 #    constant 0.1
 #end period

 REUSING EVTS FROM LAST STRESS PERIOD
WEL   no.    2 value from time series:   0.0000     for time:  32.00     to  33.00    
WEL   no.    3 value from time series:   0.0000     for time:  32.00     to  33.00    
RIV   no.    1 value from time series:   101.00     for time:  32.00     to  33.00    
RIV   no.    2 value from time series:   101.00     for time:  32.00     to  33.00    
RIV   no.    3 value from time series:   111.50     for time:  32.00     to  33.00    
RIV   no.    4 value from time series:   111.50     for time:  32.00     to  33.00    
RIV   no.    5 value from time series:   115.10     for time:  32.00     to  33.00    
RIV   no.    6 value from time series:   115.10     for time:  32.00     to  33.00    
RIV   no.    7 value from time series:   104.00     for time:  32.00     to  33.00    
RIV   no.    8 value from time series:   104.00     for time:  32.00     to  33.00    
RIV   no.    9 value from time series:   113.50     for time:  32.00     to  33.00    
RIV   no.   10 value from time series:   113.50     for time:  32.00     to  33.00    
WEL   no.    2 value from time series:   0.0000     for time:  32.00     to  33.00    
WEL   no.    3 value from time series:   0.0000     for time:  32.00     to  33.00    
RIV   no.    1 value from time series:   101.00     for time:  32.00     to  33.00    
RIV   no.    2 value from time series:   101.00     for time:  32.00     to  33.00    
RIV   no.    3 value from time series:   111.50     for time:  32.00     to  33.00    
RIV   no.    4 value from time series:   111.50     for time:  32.00     to  33.00    
RIV   no.    5 value from time series:   115.10     for time:  32.00     to  33.00    
RIV   no.    6 value from time series:   115.10     for time:  32.00     to  33.00    
RIV   no.    7 value from time series:   104.00     for time:  32.00     to  33.00    
RIV   no.    8 value from time series:   104.00     for time:  32.00     to  33.00    
RIV   no.    9 value from time series:   113.50     for time:  32.00     to  33.00    
RIV   no.   10 value from time series:   113.50     for time:  32.00     to  33.00    

 OUTPUT CONTROL FOR STRESS PERIOD    3   TIME STEP    1
    SAVE BUDGET
    SAVE HEAD
    SAVE HEAD FOR ALL LAYERS
 UBDSV1 SAVING          STORAGE ON UNIT   1016 AT TIME STEP      1, STRESS PERIOD      3
 UBDSV1 SAVING FLOW RIGHT FACE  ON UNIT   1016 AT TIME STEP      1, STRESS PERIOD      3
 UBDSV1 SAVING FLOW FRONT FACE  ON UNIT   1016 AT TIME STEP      1, STRESS PERIOD      3
 UBDSV1 SAVING FLOW LOWER FACE  ON UNIT   1016 AT TIME STEP      1, STRESS PERIOD      3
 UBDSV4 SAVING WELLS NEAR RIVER ON UNIT   1016 AT TIME STEP      1, STRESS PERIOD      3

 WELLS NEAR RIVER   PERIOD  3   STEP  1
 BOUNDARY      1   LAYER   1   ROW     2   COL     3   RATE    -50.0000    
 BOUNDARY      2   LAYER   2   ROW     3   COL     4   RATE     0.00000      WELL_1
 BOUNDARY      3   LAYER   2   ROW     8   COL     4   RATE     0.00000      WELL_2
 UBDSV4 SAVING RIVER            ON UNIT   1016 AT TIME STEP      1, STRESS PERIOD      3

 RIVER              PERIOD  3   STEP  1
 BOUNDARY      1   LAYER   1   ROW     1   COL    15   RATE    -4882.03    
 BOUNDARY      2   LAYER   1   ROW     2   COL    15   RATE    -5985.08      RIV2
 BOUNDARY      3   LAYER   1   ROW     3   COL    15   RATE    -2184.89      RIV3
 BOUNDARY      4   LAYER   1   ROW     4   COL    15   RATE    -3640.35    
 BOUNDARY      5   LAYER   1   ROW     5   COL    15   RATE    -2287.00    
 BOUNDARY      6   LAYER   1   ROW     6   COL    15   RATE    -1646.37    
 BOUNDARY      7   LAYER   1   ROW     7   COL    15   RATE    -6143.86      RIVX
 BOUNDARY      8   LAYER   1   ROW     8   COL    15   RATE    -5969.85      RIVX
 BOUNDARY      9   LAYER   1   ROW     9   COL    15   RATE    -2136.60      RIVX
 BOUNDARY     10   LAYER   1   ROW    10   COL    15   RATE    -3020.54    

 GHB LAKES          PERIOD  3   STEP  1
 BOUNDARY      1   LAYER   1   ROW     3   COL     1   RATE    -14463.5    
 BOUNDARY      2   LAYER   1   ROW     7   COL     1   RATE    -1841.26      GHB2_UPPER
 BOUNDARY      3   LAYER   1   ROW     7   COL     1   RATE    -13235.1      GHB2_LOWER
 UBDSV4 SAVING RECHARGE         ON UNIT   1016 AT TIME STEP      1, STRESS PERIOD      3

 RECHARGE           PERIOD  3   STEP  1
 BOUNDARY      1   LAYER   1   ROW     1   COL     1   RATE     567.708    
 BOUNDARY      2   LAYER   1   ROW     1   COL     2   RATE     567.708    
 BOUNDARY      3   LAYER   1   ROW     1   COL     3   RATE     567.708    
 BOUNDARY      4   LAYER   1   ROW     1   COL     4   RATE     567.708    
 BOUNDARY      5   LAYER   1   ROW     1   COL     5   RATE     567.708    
 BOUNDARY      6   LAYER   1   ROW     1   COL     6   RATE     567.708    
 BOUNDARY      7   LAYER   1   ROW     1   COL     7   RATE     567.708    
 BOUNDARY      8   LAYER   1   ROW     1   COL     8   RATE     567.708    
 BOUNDARY      9   LAYER   1   ROW     1   COL     9   RATE     567.708    
 BOUNDARY     10   LAYER   1   ROW     1   COL    10   RATE     567.708    
 BOUNDARY     11   LAYER   1   ROW     1   COL    11   RATE     567.708    
 BOUNDARY     12   LAYER   1   ROW     1   COL    12   RATE     567.708    
 BOUNDARY     13   LAYER   1   ROW     1   COL    13   RATE     567.708    
 BOUNDARY     14   LAYER   1   ROW     1   COL    14   RATE     567.708    
 BOUNDARY     15   LAYER   1   ROW     1   COL    15   RATE     567.708    
 BOUNDARY     16   LAYER   1   ROW     2   COL     1   RATE     567.708    
 BOUNDARY     17   LAYER   1   ROW     2   COL     2   RATE     567.708    
 BOUNDARY     18   LAYER   1   ROW     2   COL     3   RATE     567.708    
 BOUNDARY     19   LAYER   1   ROW     2   COL     4   RATE     567.708    
 BOUNDARY     20   LAYER   1   ROW     2   COL     5   RATE     567.708    
 BOUNDARY     21   LAYER   1   ROW     2   COL     6   RATE     567.708    
 BOUNDARY     22   LAYER   1   ROW     2   COL     7   RATE     567.708    
 BOUNDARY     23   LAYER   1   ROW     2   COL     8   RATE     567.708    
 BOUNDARY     24   LAYER   1   ROW     2   COL     9   RATE     567.708    
 BOUNDARY     25   LAYER   1   ROW     2   COL    10   RATE     567.708    
 BOUNDARY     26   LAYER   1   ROW     2   COL    11   RATE     567.708    
 BOUNDARY     27   LAYER   1   ROW     2   COL    12   RATE     567.708    
 BOUNDARY     28   LAYER   1   ROW     2   COL    13   RATE     567.708    
 BOUNDARY     29   LAYER   1   ROW     2   COL    14   RATE     567.708    
 BOUNDARY     30   LAYER   1   ROW     2   COL    15   RATE     567.708    
 BOUNDARY     31   LAYER   1   ROW     3   COL     1   RATE     567.708    
 BOUNDARY     32   LAYER   1   ROW     3   COL     2   RATE     567.708    
 BOUNDARY     33   LAYER   1   ROW     3   COL     3   RATE     567.708    
 BOUNDARY     34   LAYER   1   ROW     3   COL     4   RATE     567.708    
 BOUNDARY     35   LAYER   1   ROW     3   COL     5   RATE     567.708    
 BOUNDARY     36   LAYER   1   ROW     3   COL     6   RATE     567.708    
 BOUNDARY     37   LAYER   1   ROW     3   COL     7   RATE     567.708    
 BOUNDARY     38   LAYER   1   ROW     3   COL     8   RATE     567.708    
 BOUNDARY     39   LAYER   1   ROW     3   COL     9   RATE     567.708    
 BOUNDARY     40   LAYER   1   ROW     3   COL    10   RATE     567.708    
 BOUNDARY     41   LAYER   1   ROW     3   COL    11   RATE     567.708    
 BOUNDARY     42   LAYER   1   ROW     3   COL    12   RATE     567.708    
 BOUNDARY     43   LAYER   1   ROW     3   COL    13   RATE     567.708    
 BOUNDARY     44   LAYER   1   ROW     3   COL    14   RATE     567.708    
 BOUNDARY     45   LAYER   1   ROW     3   COL    15   RATE     567.708    
 BOUNDARY     46   LAYER   1   ROW     4   COL     1   RATE     567.708    
 BOUNDARY     47   LAYER   1   ROW     4   COL     2   RATE     567.708    
 BOUNDARY     48   LAYER   1   ROW     4   COL     3   RATE     567.708    
 BOUNDARY     49   LAYER   1   ROW     4   COL     4   RATE     567.708    
 BOUNDARY     50   LAYER   1   ROW     4   COL     5   RATE     567.708    
 BOUNDARY     51   LAYER   1   ROW     4   COL     6   RATE     567.708    
 BOUNDARY     52   LAYER   1   ROW     4   COL     7   RATE     567.708    
 BOUNDARY     53   LAYER   1   ROW     4   COL     8   RATE     567.708    
 BOUNDARY     54   LAYER   1   ROW     4   COL     9   RATE     567.708    
 BOUNDARY     55   LAYER   1   ROW     4   COL    10   RATE     567.708    
 BOUNDARY     56   LAYER   1   ROW     4   COL    11   RATE     567.708    
 BOUNDARY     57   LAYER   1   ROW     4   COL    12   RATE     567.708    
 BOUNDARY     58   LAYER   1   ROW     4   COL    13   RATE     567.708    
 BOUNDARY     59   LAYER   1   ROW     4   COL    14   RATE     567.708    
 BOUNDARY     60   LAYER   1   ROW     4   COL    15   RATE     567.708    
 BOUNDARY     61   LAYER   1   ROW     5   COL     1   RATE     567.708    
 BOUNDARY     62   LAYER   1   ROW     5   COL     2   RATE     567.708    
 BOUNDARY     63   LAYER   1   ROW     5   COL     3   RATE     567.708    
 BOUNDARY     64   LAYER   1   ROW     5   COL     4   RATE     567.708    
 BOUNDARY     65   LAYER   1   ROW     5   COL     5   RATE     567.708    
 BOUNDARY     66   LAYER   1   ROW     5   COL     6   RATE     567.708    
 BOUNDARY     67   LAYER   1   ROW     5   COL     7   RATE     567.708    
 BOUNDARY     68   LAYER   1   ROW     5   COL     8   RATE     567.708    
 BOUNDARY     69   LAYER   1   ROW     5   COL     9   RATE     567.708    
 BOUNDARY     70   LAYER   1   ROW     5   COL    10   RATE     567.708    
 BOUNDARY     71   LAYER   1   ROW     5   COL    11   RATE     567.708    
 BOUNDARY     72   LAYER   1   ROW     5   COL    12   RATE     567.708    
 BOUNDARY     73   LAYER   1   ROW     5   COL    13   RATE     567.708    
 BOUNDARY     74   LAYER   1   ROW     5   COL    14   RATE     567.708    
 BOUNDARY     75   LAYER   1   ROW     5   COL    15   RATE     567.708    
 BOUNDARY     76   LAYER   1   ROW     6   COL     1   RATE     567.708    
 BOUNDARY     77   LAYER   1   ROW     6   COL     2   RATE     567.708    
 BOUNDARY     78   LAYER   1   ROW     6   COL     3   RATE     567.708    
 BOUNDARY     79   LAYER   1   ROW     6   COL     4   RATE     567.708    
 BOUNDARY     80   LAYER   1   ROW     6   COL     5   RATE     567.708    
 BOUNDARY     81   LAYER   1   ROW     6   COL     6   RATE     567.708    
 BOUNDARY     82   LAYER   1   ROW     6   COL     7   RATE     567.708    
 BOUNDARY     83   LAYER   1   ROW     6   COL     8   RATE     567.708    
 BOUNDARY     84   LAYER   1   ROW     6   COL     9   RATE     567.708    
 BOUNDARY     85   LAYER   1   ROW     6   COL    10   RATE     567.708    
 BOUNDARY     86   LAYER   1   ROW     6   COL    11   RATE     567.708    
 BOUNDARY     87   LAYER   1   ROW     6   COL    12   RATE     567.708    
 BOUNDARY     88   LAYER   1   ROW     6   COL    13   RATE     567.708    
 BOUNDARY     89   LAYER   1   ROW     6   COL    14   RATE     567.708    
 BOUNDARY     90   LAYER   1   ROW     6   COL    15   RATE     567.708    
 BOUNDARY     91   LAYER   1   ROW     7   COL     1   RATE     567.708    
 BOUNDARY     92   LAYER   1   ROW     7   COL     2   RATE     567.708    
 BOUNDARY     93   LAYER   1   ROW     7   COL     3   RATE     567.708    
 BOUNDARY     94   LAYER   1   ROW     7   COL     4   RATE     567.708    
 BOUNDARY     95   LAYER   1   ROW     7   COL     5   RATE     567.708    
 BOUNDARY     96   LAYER   1   ROW     7   COL     6   RATE     567.708    
 BOUNDARY     97   LAYER   1   ROW     7   COL     7   RATE     567.708    
 BOUNDARY     98   LAYER   1   ROW     7   COL     8   RATE     567.708    
 BOUNDARY     99   LAYER   1   ROW     7   COL     9   RATE     567.708    
 BOUNDARY    100   LAYER   1   ROW     7   COL    10   RATE     567.708    
 BOUNDARY    101   LAYER   1   ROW     7   COL    11   RATE     567.708    
 BOUNDARY    102   LAYER   1   ROW     7   COL    12   RATE     567.708    
 BOUNDARY    103   LAYER   1   ROW     7   COL    13   RATE     567.708    
 BOUNDARY    104   LAYER   1   ROW     7   COL    14   RATE     567.708    
 BOUNDARY    105   LAYER   1   ROW     7   COL    15   RATE     567.708    
 BOUNDARY    106   LAYER   1   ROW     8   COL     1   RATE     567.708    
 BOUNDARY    107   LAYER   1   ROW     8   COL     2   RATE     567.708    
 BOUNDARY    108   LAYER   1   ROW     8   COL     3   RATE     567.708    
 BOUNDARY    109   LAYER   1   ROW     8   COL     4   RATE     567.708    
 BOUNDARY    110   LAYER   1   ROW     8   COL     5   RATE     567.708    
 BOUNDARY    111   LAYER   1   ROW     8   COL     6   RATE     567.708    
 BOUNDARY    112   LAYER   1   ROW     8   COL     7   RATE     567.708    
 BOUNDARY    113   LAYER   1   ROW     8   COL     8   RATE     567.708    
 BOUNDARY    114   LAYER   1   ROW     8   COL     9   RATE     567.708    
 BOUNDARY    115   LAYER   1   ROW     8   COL    10   RATE     567.708    
 BOUNDARY    116   LAYER   1   ROW     8   COL    11   RATE     567.708    
 BOUNDARY    117   LAYER   1   ROW     8   COL    12   RATE     567.708    
 BOUNDARY    118   LAYER   1   ROW     8   COL    13   RATE     567.708    
 BOUNDARY    119   LAYER   1   ROW     8   COL    14   RATE     567.708    
 BOUNDARY    120   LAYER   1   ROW     8   COL    15   RATE     567.708    
 BOUNDARY    121   LAYER   1   ROW     9   COL     1   RATE     567.708    
 BOUNDARY    122   LAYER   1   ROW     9   COL     2   RATE     567.708    
 BOUNDARY    123   LAYER   1   ROW     9   COL     3   RATE     567.708    
 BOUNDARY    124   LAYER   1   ROW     9   COL     4   RATE     567.708    
 BOUNDARY    125   LAYER   1   ROW     9   COL     5   RATE     567.708    
 BOUNDARY    126   LAYER   1   ROW     9   COL     6   RATE     567.708    
 BOUNDARY    127   LAYER   1   ROW     9   COL     7   RATE     567.708    
 BOUNDARY    128   LAYER   1   ROW     9   COL     8   RATE     567.708    
 BOUNDARY    129   LAYER   1   ROW     9   COL     9   RATE     567.708    
 BOUNDARY    130   LAYER   1   ROW     9   COL    10   RATE     567.708    
 BOUNDARY    131   LAYER   1   ROW     9   COL    11   RATE     567.708    
 BOUNDARY    132   LAYER   1   ROW     9   COL    12   RATE     567.708    
 BOUNDARY    133   LAYER   1   ROW     9   COL    13   RATE     567.708    
 BOUNDARY    134   LAYER   1   ROW     9   COL    14   RATE     567.708    
 BOUNDARY    135   LAYER   1   ROW     9   COL    15   RATE     567.708    
 BOUNDARY    136   LAYER   1   ROW    10   COL     1   RATE     567.708    
 BOUNDARY    137   LAYER   1   ROW    10   COL     2   RATE     567.708    
 BOUNDARY    138   LAYER   1   ROW    10   COL     3   RATE     567.708    
 BOUNDARY    139   LAYER   1   ROW    10   COL     4   RATE     567.708    
 BOUNDARY    140   LAYER   1   ROW    10   COL     5   RATE     567.708    
 BOUNDARY    141   LAYER   1   ROW    10   COL     6   RATE     567.708    
 BOUNDARY    142   LAYER   1   ROW    10   COL     7   RATE     567.708    
 BOUNDARY    143   LAYER   1   ROW    10   COL     8   RATE     567.708    
 BOUNDARY    144   LAYER   1   ROW    10   COL     9   RATE     567.708    
 BOUNDARY    145   LAYER   1   ROW    10   COL    10   RATE     567.708    
 BOUNDARY    146   LAYER   1   ROW    10   COL    11   RATE     567.708    
 BOUNDARY    147   LAYER   1   ROW    10   COL    12   RATE     567.708    
 BOUNDARY    148   LAYER   1   ROW    10   COL    13   RATE     567.708    
 BOUNDARY    149   LAYER   1   ROW    10   COL    14   RATE     567.708    
 BOUNDARY    150   LAYER   1   ROW    10   COL    15   RATE     567.708    
 UBDSV4 SAVING ET SEGS          ON UNIT   1016 AT TIME STEP      1, STRESS PERIOD      3

 ET SEGS            PERIOD  3   STEP  1
 BOUNDARY      1   LAYER   1   ROW     1   COL     1   RATE    -1.76108    
 BOUNDARY      2   LAYER   1   ROW     1   COL     2   RATE    -7.36938    
 BOUNDARY      3   LAYER   1   ROW     1   COL     3   RATE    -40.5620    
 BOUNDARY      4   LAYER   1   ROW     1   COL     4   RATE    -81.7708    
 BOUNDARY      5   LAYER   1   ROW     1   COL     5   RATE    -81.7708    
 BOUNDARY      6   LAYER   1   ROW     1   COL     6   RATE    -81.7708    
 BOUNDARY      7   LAYER   1   ROW     1   COL     7   RATE    -81.7708    
 BOUNDARY      8   LAYER   1   ROW     1   COL     8   RATE    -81.7708    
 BOUNDARY      9   LAYER   1   ROW     1   COL     9   RATE    -81.7708    
 BOUNDARY     10   LAYER   1   ROW     1   COL    10   RATE    -81.7708    
 BOUNDARY     11   LAYER   1   ROW     1   COL    11   RATE    -81.7708    
 BOUNDARY     12   LAYER   1   ROW     1   COL    12   RATE    -13.7762    
 BOUNDARY     13   LAYER   1   ROW     1   COL    13   RATE     0.00000    
 BOUNDARY     14   LAYER   1   ROW     1   COL    14   RATE     0.00000    
 BOUNDARY     15   LAYER   1   ROW     1   COL    15   RATE     0.00000    
 BOUNDARY     16   LAYER   1   ROW     2   COL     1   RATE     0.00000    
 BOUNDARY     17   LAYER   1   ROW     2   COL     2   RATE    -3.67476    
 BOUNDARY     18   LAYER   1   ROW     2   COL     3   RATE    -23.1693    
 BOUNDARY     19   LAYER   1   ROW     2   COL     4   RATE    -81.7708    
 BOUNDARY     20   LAYER   1   ROW     2   COL     5   RATE    -81.7708    
 BOUNDARY     21   LAYER   1   ROW     2   COL     6   RATE    -81.7708    
 BOUNDARY     22   LAYER   1   ROW     2   COL     7   RATE    -81.7708    
 BOUNDARY     23   LAYER   1   ROW     2   COL     8   RATE    -81.7708    
 BOUNDARY     24   LAYER   1   ROW     2   COL     9   RATE    -81.7708    
 BOUNDARY     25   LAYER   1   ROW     2   COL    10   RATE    -81.7708    
 BOUNDARY     26   LAYER   1   ROW     2   COL    11   RATE    -81.7708    
 BOUNDARY     27   LAYER   1   ROW     2   COL    12   RATE    -15.2003    
 BOUNDARY     28   LAYER   1   ROW     2   COL    13   RATE   -9.004584E-02
 BOUNDARY     29   LAYER   1   ROW     2   COL    14   RATE     0.00000    
 BOUNDARY     30   LAYER   1   ROW     2   COL    15   RATE     0.00000    
 BOUNDARY     31   LAYER   1   ROW     3   COL     1   RATE     0.00000    
 BOUNDARY     32   LAYER   1   ROW     3   COL     2   RATE     0.00000    
 BOUNDARY     33   LAYER   1   ROW     3   COL     3   RATE    -18.2752    
 BOUNDARY     34   LAYER   1   ROW     3   COL     4   RATE    -81.7708    
 BOUNDARY     35   LAYER   1   ROW     3   COL     5   RATE    -81.7708    
 BOUNDARY     36   LAYER   1   ROW     3   COL     6   RATE    -81.7708    
 BOUNDARY     37   LAYER   1   ROW     3   COL     7   RATE    -81.7708    
 BOUNDARY     38   LAYER   1   ROW     3   COL     8   RATE    -81.7708    
 BOUNDARY     39   LAYER   1   ROW     3   COL     9   RATE    -81.7708    
 BOUNDARY     40   LAYER   1   ROW     3   COL    10   RATE    -81.7708    
 BOUNDARY     41   LAYER   1   ROW     3   COL    11   RATE    -81.7708    
 BOUNDARY     42   LAYER   1   ROW     3   COL    12   RATE    -17.6024    
 BOUNDARY     43   LAYER   1   ROW     3   COL    13   RATE    -1.55177    
 BOUNDARY     44   LAYER   1   ROW     3   COL    14   RATE     0.00000    
 BOUNDARY     45   LAYER   1   ROW     3   COL    15   RATE     0.00000    
 BOUNDARY     46   LAYER   1   ROW     4   COL     1   RATE     0.00000    
 BOUNDARY     47   LAYER   1   ROW     4   COL     2   RATE    -2.43604    
 BOUNDARY     48   LAYER   1   ROW     4   COL     3   RATE    -21.4388    
 BOUNDARY     49   LAYER   1   ROW     4   COL     4   RATE    -81.7708    
 BOUNDARY     50   LAYER   1   ROW     4   COL     5   RATE    -81.7708    
 BOUNDARY     51   LAYER   1   ROW     4   COL     6   RATE    -81.7708    
 BOUNDARY     52   LAYER   1   ROW     4   COL     7   RATE    -81.7708    
 BOUNDARY     53   LAYER   1   ROW     4   COL     8   RATE    -81.7708    
 BOUNDARY     54   LAYER   1   ROW     4   COL     9   RATE    -81.7708    
 BOUNDARY     55   LAYER   1   ROW     4   COL    10   RATE    -81.7708    
 BOUNDARY     56   LAYER   1   ROW     4   COL    11   RATE    -81.7708    
 BOUNDARY     57   LAYER   1   ROW     4   COL    12   RATE    -19.8951    
 BOUNDARY     58   LAYER   1   ROW     4   COL    13   RATE    -2.74869    
 BOUNDARY     59   LAYER   1   ROW     4   COL    14   RATE     0.00000    
 BOUNDARY     60   LAYER   1   ROW     4   COL    15   RATE     0.00000    
 BOUNDARY     61   LAYER   1   ROW     5   COL     1   RATE     0.00000    
 BOUNDARY     62   LAYER   1   ROW     5   COL     2   RATE    -4.86863    
 BOUNDARY     63   LAYER   1   ROW     5   COL     3   RATE    -25.4327    
 BOUNDARY     64   LAYER   1   ROW     5   COL     4   RATE    -81.7708    
 BOUNDARY     65   LAYER   1   ROW     5   COL     5   RATE    -81.7708    
 BOUNDARY     66   LAYER   1   ROW     5   COL     6   RATE    -81.7708    
 BOUNDARY     67   LAYER   1   ROW     5   COL     7   RATE    -81.7708    
 BOUNDARY     68   LAYER   1   ROW     5   COL     8   RATE    -81.7708    
 BOUNDARY     69   LAYER   1   ROW     5   COL     9   RATE    -81.7708    
 BOUNDARY     70   LAYER   1   ROW     5   COL    10   RATE    -81.7708    
 BOUNDARY     71   LAYER   1   ROW     5   COL    11   RATE    -81.7708    
 BOUNDARY     72   LAYER   1   ROW     5   COL    12   RATE    -21.4827    
 BOUNDARY     73   LAYER   1   ROW     5   COL    13   RATE    -3.49247    
 BOUNDARY     74   LAYER   1   ROW     5   COL    14   RATE     0.00000    
 BOUNDARY     75   LAYER   1   ROW     5   COL    15   RATE     0.00000    
 BOUNDARY     76   LAYER   1   ROW     6   COL     1   RATE     0.00000    
 BOUNDARY     77   LAYER   1   ROW     6   COL     2   RATE    -3.69988    
 BOUNDARY     78   LAYER   1   ROW     6   COL     3   RATE    -28.6142    
 BOUNDARY     79   LAYER   1   ROW     6   COL     4   RATE    -81.7708    
 BOUNDARY     80   LAYER   1   ROW     6   COL     5   RATE    -81.7708    
 BOUNDARY     81   LAYER   1   ROW     6   COL     6   RATE    -81.7708    
 BOUNDARY     82   LAYER   1   ROW     6   COL     7   RATE    -81.7708    
 BOUNDARY     83   LAYER   1   ROW     6   COL     8   RATE    -81.7708    
 BOUNDARY     84   LAYER   1   ROW     6   COL     9   RATE    -81.7708    
 BOUNDARY     85   LAYER   1   ROW     6   COL    10   RATE    -81.7708    
 BOUNDARY     86   LAYER   1   ROW     6   COL    11   RATE    -81.7708    
 BOUNDARY     87   LAYER   1   ROW     6   COL    12   RATE    -22.0145    
 BOUNDARY     88   LAYER   1   ROW     6   COL    13   RATE    -3.45903    
 BOUNDARY     89   LAYER   1   ROW     6   COL    14   RATE     0.00000    
 BOUNDARY     90   LAYER   1   ROW     6   COL    15   RATE     0.00000    
 BOUNDARY     91   LAYER   1   ROW     7   COL     1   RATE     0.00000    
 BOUNDARY     92   LAYER   1   ROW     7   COL     2   RATE   -0.840817    
 BOUNDARY     93   LAYER   1   ROW     7   COL     3   RATE    -34.3086    
 BOUNDARY     94   LAYER   1   ROW     7   COL     4   RATE    -81.7708    
 BOUNDARY     95   LAYER   1   ROW     7   COL     5   RATE    -81.7708    
 BOUNDARY     96   LAYER   1   ROW     7   COL     6   RATE    -81.7708    
 BOUNDARY     97   LAYER   1   ROW     7   COL     7   RATE    -81.7708    
 BOUNDARY     98   LAYER   1   ROW     7   COL     8   RATE    -81.7708    
 BOUNDARY     99   LAYER   1   ROW     7   COL     9   RATE    -81.7708    
 BOUNDARY    100   LAYER   1   ROW     7   COL    10   RATE    -81.7708    
 BOUNDARY    101   LAYER   1   ROW     7   COL    11   RATE    -81.7708    
 BOUNDARY    102   LAYER   1   ROW     7   COL    12   RATE    -21.8819    
 BOUNDARY    103   LAYER   1   ROW     7   COL    13   RATE    -2.86066    
 BOUNDARY    104   LAYER   1   ROW     7   COL    14   RATE     0.00000    
 BOUNDARY    105   LAYER   1   ROW     7   COL    15   RATE     0.00000    
 BOUNDARY    106   LAYER   1   ROW     8   COL     1   RATE     0.00000    
 BOUNDARY    107   LAYER   1   ROW     8   COL     2   RATE    -9.26173    
 BOUNDARY    108   LAYER   1   ROW     8   COL     3   RATE    -81.7708    
 BOUNDARY    109   LAYER   1   ROW     8   COL     4   RATE    -81.7708    
 BOUNDARY    110   LAYER   1   ROW     8   COL     5   RATE    -81.7708    
 BOUNDARY    111   LAYER   1   ROW     8   COL     6   RATE    -81.7708    
 BOUNDARY    112   LAYER   1   ROW     8   COL     7   RATE    -81.7708    
 BOUNDARY    113   LAYER   1   ROW     8   COL     8   RATE    -81.7708    
 BOUNDARY    114   LAYER   1   ROW     8   COL     9   RATE    -81.7708    
 BOUNDARY    115   LAYER   1   ROW     8   COL    10   RATE    -81.7708    
 BOUNDARY    116   LAYER   1   ROW     8   COL    11   RATE    -81.7708    
 BOUNDARY    117   LAYER   1   ROW     8   COL    12   RATE    -22.1990    
 BOUNDARY    118   LAYER   1   ROW     8   COL    13   RATE    -2.86333    
 BOUNDARY    119   LAYER   1   ROW     8   COL    14   RATE     0.00000    
 BOUNDARY    120   LAYER   1   ROW     8   COL    15   RATE     0.00000    
 BOUNDARY    121   LAYER   1   ROW     9   COL     1   RATE    -15.4647    
 BOUNDARY    122   LAYER   1   ROW     9   COL     2   RATE    -49.9983    
 BOUNDARY    123   LAYER   1   ROW     9   COL     3   RATE    -81.7708    
 BOUNDARY    124   LAYER   1   ROW     9   COL     4   RATE    -81.7708    
 BOUNDARY    125   LAYER   1   ROW     9   COL     5   RATE    -81.7708    
 BOUNDARY    126   LAYER   1   ROW     9   COL     6   RATE    -81.7708    
 BOUNDARY    127   LAYER   1   ROW     9   COL     7   RATE    -81.7708    
 BOUNDARY    128   LAYER   1   ROW     9   COL     8   RATE    -81.7708    
 BOUNDARY    129   LAYER   1   ROW     9   COL     9   RATE    -81.7708    
 BOUNDARY    130   LAYER   1   ROW     9   COL    10   RATE    -81.7708    
 BOUNDARY    131   LAYER   1   ROW     9   COL    11   RATE    -81.7708    
 BOUNDARY    132   LAYER   1   ROW     9   COL    12   RATE    -23.0973    
 BOUNDARY    133   LAYER   1   ROW     9   COL    13   RATE    -3.53476    
 BOUNDARY    134   LAYER   1   ROW     9   COL    14   RATE     0.00000    
 BOUNDARY    135   LAYER   1   ROW     9   COL    15   RATE     0.00000    
 BOUNDARY    136   LAYER   1   ROW    10   COL     1   RATE    -56.7517    
 BOUNDARY    137   LAYER   1   ROW    10   COL     2   RATE    -81.7708    
 BOUNDARY    138   LAYER   1   ROW    10   COL     3   RATE    -81.7708    
 BOUNDARY    139   LAYER   1   ROW    10   COL     4   RATE    -81.7708    
 BOUNDARY    140   LAYER   1   ROW    10   COL     5   RATE    -81.7708    
 BOUNDARY    141   LAYER   1   ROW    10   COL     6   RATE    -81.7708    
 BOUNDARY    142   LAYER   1   ROW    10   COL     7   RATE    -81.7708    
 BOUNDARY    143   LAYER   1   ROW    10   COL     8   RATE    -81.7708    
 BOUNDARY    144   LAYER   1   ROW    10   COL     9   RATE    -81.7708    
 BOUNDARY    145   LAYER   1   ROW    10   COL    10   RATE    -81.7708    
 BOUNDARY    146   LAYER   1   ROW    10   COL    11   RATE    -81.7708    
 BOUNDARY    147   LAYER   1   ROW    10   COL    12   RATE    -23.7481    
 BOUNDARY    148   LAYER   1   ROW    10   COL    13   RATE    -3.96620    
 BOUNDARY    149   LAYER   1   ROW    10   COL    14   RATE     0.00000    
 BOUNDARY    150   LAYER   1   ROW    10   COL    15   RATE     0.00000    

 HEAD WILL BE SAVED ON UNIT 1017 AT END OF TIME STEP    1, STRESS PERIOD    3
WEL   no.    2 value from time series:   0.0000     for time:  33.00     to  34.00    
WEL   no.    3 value from time series:   0.0000     for time:  33.00     to  34.00    
RIV   no.    1 value from time series:   101.00     for time:  33.00     to  34.00    
RIV   no.    2 value from time series:   101.00     for time:  33.00     to  34.00    
RIV   no.    3 value from time series:   111.50     for time:  33.00     to  34.00    
RIV   no.    4 value from time series:   111.50     for time:  33.00     to  34.00    
RIV   no.    5 value from time series:   115.10     for time:  33.00     to  34.00    
RIV   no.    6 value from time series:   115.10     for time:  33.00     to  34.00    
RIV   no.    7 value from time series:   104.00     for time:  33.00     to  34.00    
RIV   no.    8 value from time series:   104.00     for time:  33.00     to  34.00    
RIV   no.    9 value from time series:   113.50     for time:  33.00     to  34.00    
RIV   no.   10 value from time series:   113.50     for time:  33.00     to  34.00    
WEL   no.    2 value from time series:   0.0000     for time:  33.00     to  34.00    
WEL   no.    3 value from time series:   0.0000     for time:  33.00     to  34.00    
RIV   no.    1 value from time series:   101.00     for time:  33.00     to  34.00    
RIV   no.    2 value from time series:   101.00     for time:  33.00     to  34.00    
RIV   no.    3 value from time series:   111.50     for time:  33.00     to  34.00    
RIV   no.    4 value from time series:   111.50     for time:  33.00     to  34.00    
RIV   no.    5 value from time series:   115.10     for time:  33.00     to  34.00    
RIV   no.    6 value from time series:   115.10     for time:  33.00     to  34.00    
RIV   no.    7 value from time series:   104.00     for time:  33.00     to  34.00    
RIV   no.    8 value from time series:   104.00     for time:  33.00     to  34.00    
RIV   no.    9 value from time series:   113.50     for time:  33.00     to  34.00    
RIV   no.   10 value from time series:   113.50     for time:  33.00     to  34.00    

 OUTPUT CONTROL FOR STRESS PERIOD    3   TIME STEP    2
    SAVE BUDGET
    SAVE HEAD
    SAVE HEAD FOR ALL LAYERS
 UBDSV1 SAVING          STORAGE ON UNIT   1016 AT TIME STEP      2, STRESS PERIOD      3
 UBDSV1 SAVING FLOW RIGHT FACE  ON UNIT   1016 AT TIME STEP      2, STRESS PERIOD      3
 UBDSV1 SAVING FLOW FRONT FACE  ON UNIT   1016 AT TIME STEP      2, STRESS PERIOD      3
 UBDSV1 SAVING FLOW LOWER FACE  ON UNIT   1016 AT TIME STEP      2, STRESS PERIOD      3
 UBDSV4 SAVING WELLS NEAR RIVER ON UNIT   1016 AT TIME STEP      2, STRESS PERIOD      3

 WELLS NEAR RIVER   PERIOD  3   STEP  2
 BOUNDARY      1   LAYER   1   ROW     2   COL     3   RATE    -50.0000    
 BOUNDARY      2   LAYER   2   ROW     3   COL     4   RATE     0.00000      WELL_1
 BOUNDARY      3   LAYER   2   ROW     8   COL     4   RATE     0.00000      WELL_2
 UBDSV4 SAVING RIVER            ON UNIT   1016 AT TIME STEP      2, STRESS PERIOD      3

 RIVER              PERIOD  3   STEP  2
 BOUNDARY      1   LAYER   1   ROW     1   COL    15   RATE    -4875.35    
 BOUNDARY      2   LAYER   1   ROW     2   COL    15   RATE    -5979.09      RIV2
 BOUNDARY      3   LAYER   1   ROW     3   COL    15   RATE    -2182.85      RIV3
 BOUNDARY      4   LAYER   1   ROW     4   COL    15   RATE    -3638.41    
 BOUNDARY      5   LAYER   1   ROW     5   COL    15   RATE    -2284.79    
 BOUNDARY      6   LAYER   1   ROW     6   COL    15   RATE    -1643.68    
 BOUNDARY      7   LAYER   1   ROW     7   COL    15   RATE    -6139.90      RIVX
 BOUNDARY      8   LAYER   1   ROW     8   COL    15   RATE    -5966.82      RIVX
 BOUNDARY      9   LAYER   1   ROW     9   COL    15   RATE    -2135.76      RIVX
 BOUNDARY     10   LAYER   1   ROW    10   COL    15   RATE    -3020.51    

 GHB LAKES          PERIOD  3   STEP  2
 BOUNDARY      1   LAYER   1   ROW     3   COL     1   RATE    -14465.3    
 BOUNDARY      2   LAYER   1   ROW     7   COL     1   RATE    -1841.86      GHB2_UPPER
 BOUNDARY      3   LAYER   1   ROW     7   COL     1   RATE    -13235.3      GHB2_LOWER
 UBDSV4 SAVING RECHARGE         ON UNIT   1016 AT TIME STEP      2, STRESS PERIOD      3

 RECHARGE           PERIOD  3   STEP  2
 BOUNDARY      1   LAYER   1   ROW     1   COL     1   RATE     569.792    
 BOUNDARY      2   LAYER   1   ROW     1   COL     2   RATE     569.792    
 BOUNDARY      3   LAYER   1   ROW     1   COL     3   RATE     569.792    
 BOUNDARY      4   LAYER   1   ROW     1   COL     4   RATE     569.792    
 BOUNDARY      5   LAYER   1   ROW     1   COL     5   RATE     569.792    
 BOUNDARY      6   LAYER   1   ROW     1   COL     6   RATE     569.792    
 BOUNDARY      7   LAYER   1   ROW     1   COL     7   RATE     569.792    
 BOUNDARY      8   LAYER   1   ROW     1   COL     8   RATE     569.792    
 BOUNDARY      9   LAYER   1   ROW     1   COL     9   RATE     569.792    
 BOUNDARY     10   LAYER   1   ROW     1   COL    10   RATE     569.792    
 BOUNDARY     11   LAYER   1   ROW     1   COL    11   RATE     569.792    
 BOUNDARY     12   LAYER   1   ROW     1   COL    12   RATE     569.792    
 BOUNDARY     13   LAYER   1   ROW     1   COL    13   RATE     569.792    
 BOUNDARY     14   LAYER   1   ROW     1   COL    14   RATE     569.792    
 BOUNDARY     15   LAYER   1   ROW     1   COL    15   RATE     569.792    
 BOUNDARY     16   LAYER   1   ROW     2   COL     1   RATE     569.792    
 BOUNDARY     17   LAYER   1   ROW     2   COL     2   RATE     569.792    
 BOUNDARY     18   LAYER   1   ROW     2   COL     3   RATE     569.792    
 BOUNDARY     19   LAYER   1   ROW     2   COL     4   RATE     569.792    
 BOUNDARY     20   LAYER   1   ROW     2   COL     5   RATE     569.792    
 BOUNDARY     21   LAYER   1   ROW     2   COL     6   RATE     569.792    
 BOUNDARY     22   LAYER   1   ROW     2   COL     7   RATE     569.792    
 BOUNDARY     23   LAYER   1   ROW     2   COL     8   RATE     569.792    
 BOUNDARY     24   LAYER   1   ROW     2   COL     9   RATE     569.792    
 BOUNDARY     25   LAYER   1   ROW     2   COL    10   RATE     569.792    
 BOUNDARY     26   LAYER   1   ROW     2   COL    11   RATE     569.792    
 BOUNDARY     27   LAYER   1   ROW     2   COL    12   RATE     569.792    
 BOUNDARY     28   LAYER   1   ROW     2   COL    13   RATE     569.792    
 BOUNDARY     29   LAYER   1   ROW     2   COL    14   RATE     569.792    
 BOUNDARY     30   LAYER   1   ROW     2   COL    15   RATE     569.792    
 BOUNDARY     31   LAYER   1   ROW     3   COL     1   RATE     569.792    
 BOUNDARY     32   LAYER   1   ROW     3   COL     2   RATE     569.792    
 BOUNDARY     33   LAYER   1   ROW     3   COL     3   RATE     569.792    
 BOUNDARY     34   LAYER   1   ROW     3   COL     4   RATE     569.792    
 BOUNDARY     35   LAYER   1   ROW     3   COL     5   RATE     569.792    
 BOUNDARY     36   LAYER   1   ROW     3   COL     6   RATE     569.792    
 BOUNDARY     37   LAYER   1   ROW     3   COL     7   RATE     569.792    
 BOUNDARY     38   LAYER   1   ROW     3   COL     8   RATE     569.792    
 BOUNDARY     39   LAYER   1   ROW     3   COL     9   RATE     569.792    
 BOUNDARY     40   LAYER   1   ROW     3   COL    10   RATE     569.792    
 BOUNDARY     41   LAYER   1   ROW     3   COL    11   RATE     569.792    
 BOUNDARY     42   LAYER   1   ROW     3   COL    12   RATE     569.792    
 BOUNDARY     43   LAYER   1   ROW     3   COL    13   RATE     569.792    
 BOUNDARY     44   LAYER   1   ROW     3   COL    14   RATE     569.792    
 BOUNDARY     45   LAYER   1   ROW     3   COL    15   RATE     569.792    
 BOUNDARY     46   LAYER   1   ROW     4   COL     1   RATE     569.792    
 BOUNDARY     47   LAYER   1   ROW     4   COL     2   RATE     569.792    
 BOUNDARY     48   LAYER   1   ROW     4   COL     3   RATE     569.792    
 BOUNDARY     49   LAYER   1   ROW     4   COL     4   RATE     569.792    
 BOUNDARY     50   LAYER   1   ROW     4   COL     5   RATE     569.792    
 BOUNDARY     51   LAYER   1   ROW     4   COL     6   RATE     569.792    
 BOUNDARY     52   LAYER   1   ROW     4   COL     7   RATE     569.792    
 BOUNDARY     53   LAYER   1   ROW     4   COL     8   RATE     569.792    
 BOUNDARY     54   LAYER   1   ROW     4   COL     9   RATE     569.792    
 BOUNDARY     55   LAYER   1   ROW     4   COL    10   RATE     569.792    
 BOUNDARY     56   LAYER   1   ROW     4   COL    11   RATE     569.792    
 BOUNDARY     57   LAYER   1   ROW     4   COL    12   RATE     569.792    
 BOUNDARY     58   LAYER   1   ROW     4   COL    13   RATE     569.792    
 BOUNDARY     59   LAYER   1   ROW     4   COL    14   RATE     569.792    
 BOUNDARY     60   LAYER   1   ROW     4   COL    15   RATE     569.792    
 BOUNDARY     61   LAYER   1   ROW     5   COL     1   RATE     569.792    
 BOUNDARY     62   LAYER   1   ROW     5   COL     2   RATE     569.792    
 BOUNDARY     63   LAYER   1   ROW     5   COL     3   RATE     569.792    
 BOUNDARY     64   LAYER   1   ROW     5   COL     4   RATE     569.792    
 BOUNDARY     65   LAYER   1   ROW     5   COL     5   RATE     569.792    
 BOUNDARY     66   LAYER   1   ROW     5   COL     6   RATE     569.792    
 BOUNDARY     67   LAYER   1   ROW     5   COL     7   RATE     569.792    
 BOUNDARY     68   LAYER   1   ROW     5   COL     8   RATE     569.792    
 BOUNDARY     69   LAYER   1   ROW     5   COL     9   RATE     569.792    
 BOUNDARY     70   LAYER   1   ROW     5   COL    10   RATE     569.792    
 BOUNDARY     71   LAYER   1   ROW     5   COL    11   RATE     569.792    
 BOUNDARY     72   LAYER   1   ROW     5   COL    12   RATE     569.792    
 BOUNDARY     73   LAYER   1   ROW     5   COL    13   RATE     569.792    
 BOUNDARY     74   LAYER   1   ROW     5   COL    14   RATE     569.792    
 BOUNDARY     75   LAYER   1   ROW     5   COL    15   RATE     569.792    
 BOUNDARY     76   LAYER   1   ROW     6   COL     1   RATE     569.792    
 BOUNDARY     77   LAYER   1   ROW     6   COL     2   RATE     569.792    
 BOUNDARY     78   LAYER   1   ROW     6   COL     3   RATE     569.792    
 BOUNDARY     79   LAYER   1   ROW     6   COL     4   RATE     569.792    
 BOUNDARY     80   LAYER   1   ROW     6   COL     5   RATE     569.792    
 BOUNDARY     81   LAYER   1   ROW     6   COL     6   RATE     569.792    
 BOUNDARY     82   LAYER   1   ROW     6   COL     7   RATE     569.792    
 BOUNDARY     83   LAYER   1   ROW     6   COL     8   RATE     569.792    
 BOUNDARY     84   LAYER   1   ROW     6   COL     9   RATE     569.792    
 BOUNDARY     85   LAYER   1   ROW     6   COL    10   RATE     569.792    
 BOUNDARY     86   LAYER   1   ROW     6   COL    11   RATE     569.792    
 BOUNDARY     87   LAYER   1   ROW     6   COL    12   RATE     569.792    
 BOUNDARY     88   LAYER   1   ROW     6   COL    13   RATE     569.792    
 BOUNDARY     89   LAYER   1   ROW     6   COL    14   RATE     569.792    
 BOUNDARY     90   LAYER   1   ROW     6   COL    15   RATE     569.792    
 BOUNDARY     91   LAYER   1   ROW     7   COL     1   RATE     569.792    
 BOUNDARY     92   LAYER   1   ROW     7   COL     2   RATE     569.792    
 BOUNDARY     93   LAYER   1   ROW     7   COL     3   RATE     569.792    
 BOUNDARY     94   LAYER   1   ROW     7   COL     4   RATE     569.792    
 BOUNDARY     95   LAYER   1   ROW     7   COL     5   RATE     569.792    
 BOUNDARY     96   LAYER   1   ROW     7   COL     6   RATE     569.792    
 BOUNDARY     97   LAYER   1   ROW     7   COL     7   RATE     569.792    
 BOUNDARY     98   LAYER   1   ROW     7   COL     8   RATE     569.792    
 BOUNDARY     99   LAYER   1   ROW     7   COL     9   RATE     569.792    
 BOUNDARY    100   LAYER   1   ROW     7   COL    10   RATE     569.792    
 BOUNDARY    101   LAYER   1   ROW     7   COL    11   RATE     569.792    
 BOUNDARY    102   LAYER   1   ROW     7   COL    12   RATE     569.792    
 BOUNDARY    103   LAYER   1   ROW     7   COL    13   RATE     569.792    
 BOUNDARY    104   LAYER   1   ROW     7   COL    14   RATE     569.792    
 BOUNDARY    105   LAYER   1   ROW     7   COL    15   RATE     569.792    
 BOUNDARY    106   LAYER   1   ROW     8   COL     1   RATE     569.792    
 BOUNDARY    107   LAYER   1   ROW     8   COL     2   RATE     569.792    
 BOUNDARY    108   LAYER   1   ROW     8   COL     3   RATE     569.792    
 BOUNDARY    109   LAYER   1   ROW     8   COL     4   RATE     569.792    
 BOUNDARY    110   LAYER   1   ROW     8   COL     5   RATE     569.792    
 BOUNDARY    111   LAYER   1   ROW     8   COL     6   RATE     569.792    
 BOUNDARY    112   LAYER   1   ROW     8   COL     7   RATE     569.792    
 BOUNDARY    113   LAYER   1   ROW     8   COL     8   RATE     569.792    
 BOUNDARY    114   LAYER   1   ROW     8   COL     9   RATE     569.792    
 BOUNDARY    115   LAYER   1   ROW     8   COL    10   RATE     569.792    
 BOUNDARY    116   LAYER   1   ROW     8   COL    11   RATE     569.792    
 BOUNDARY    117   LAYER   1   ROW     8   COL    12   RATE     569.792    
 BOUNDARY    118   LAYER   1   ROW     8   COL    13   RATE     569.792    
 BOUNDARY    119   LAYER   1   ROW     8   COL    14   RATE     569.792    
 BOUNDARY    120   LAYER   1   ROW     8   COL    15   RATE     569.792    
 BOUNDARY    121   LAYER   1   ROW     9   COL     1   RATE     569.792    
 BOUNDARY    122   LAYER   1   ROW     9   COL     2   RATE     569.792    
 BOUNDARY    123   LAYER   1   ROW     9   COL     3   RATE     569.792    
 BOUNDARY    124   LAYER   1   ROW     9   COL     4   RATE     569.792    
 BOUNDARY    125   LAYER   1   ROW     9   COL     5   RATE     569.792    
 BOUNDARY    126   LAYER   1   ROW     9   COL     6   RATE     569.792    
 BOUNDARY    127   LAYER   1   ROW     9   COL     7   RATE     569.792    
 BOUNDARY    128   LAYER   1   ROW     9   COL     8   RATE     569.792    
 BOUNDARY    129   LAYER   1   ROW     9   COL     9   RATE     569.792    
 BOUNDARY    130   LAYER   1   ROW     9   COL    10   RATE     569.792    
 BOUNDARY    131   LAYER   1   ROW     9   COL    11   RATE     569.792    
 BOUNDARY    132   LAYER   1   ROW     9   COL    12   RATE     569.792    
 BOUNDARY    133   LAYER   1   ROW     9   COL    13   RATE     569.792    
 BOUNDARY    134   LAYER   1   ROW     9   COL    14   RATE     569.792    
 BOUNDARY    135   LAYER   1   ROW     9   COL    15   RATE     569.792    
 BOUNDARY    136   LAYER   1   ROW    10   COL     1   RATE     569.792    
 BOUNDARY    137   LAYER   1   ROW    10   COL     2   RATE     569.792    
 BOUNDARY    138   LAYER   1   ROW    10   COL     3   RATE     569.792    
 BOUNDARY    139   LAYER   1   ROW    10   COL     4   RATE     569.792    
 BOUNDARY    140   LAYER   1   ROW    10   COL     5   RATE     569.792    
 BOUNDARY    141   LAYER   1   ROW    10   COL     6   RATE     569.792    
 BOUNDARY    142   LAYER   1   ROW    10   COL     7   RATE     569.792    
 BOUNDARY    143   LAYER   1   ROW    10   COL     8   RATE     569.792    
 BOUNDARY    144   LAYER   1   ROW    10   COL     9   RATE     569.792    
 BOUNDARY    145   LAYER   1   ROW    10   COL    10   RATE     569.792    
 BOUNDARY    146   LAYER   1   ROW    10   COL    11   RATE     569.792    
 BOUNDARY    147   LAYER   1   ROW    10   COL    12   RATE     569.792    
 BOUNDARY    148   LAYER   1   ROW    10   COL    13   RATE     569.792    
 BOUNDARY    149   LAYER   1   ROW    10   COL    14   RATE     569.792    
 BOUNDARY    150   LAYER   1   ROW    10   COL    15   RATE     569.792    
 UBDSV4 SAVING ET SEGS          ON UNIT   1016 AT TIME STEP      2, STRESS PERIOD      3

 ET SEGS            PERIOD  3   STEP  2
 BOUNDARY      1   LAYER   1   ROW     1   COL     1   RATE    -1.77007    
 BOUNDARY      2   LAYER   1   ROW     1   COL     2   RATE    -7.39283    
 BOUNDARY      3   LAYER   1   ROW     1   COL     3   RATE    -40.7508    
 BOUNDARY      4   LAYER   1   ROW     1   COL     4   RATE    -81.9792    
 BOUNDARY      5   LAYER   1   ROW     1   COL     5   RATE    -81.9792    
 BOUNDARY      6   LAYER   1   ROW     1   COL     6   RATE    -81.9792    
 BOUNDARY      7   LAYER   1   ROW     1   COL     7   RATE    -81.9792    
 BOUNDARY      8   LAYER   1   ROW     1   COL     8   RATE    -81.9792    
 BOUNDARY      9   LAYER   1   ROW     1   COL     9   RATE    -81.9792    
 BOUNDARY     10   LAYER   1   ROW     1   COL    10   RATE    -81.9792    
 BOUNDARY     11   LAYER   1   ROW     1   COL    11   RATE    -81.9792    
 BOUNDARY     12   LAYER   1   ROW     1   COL    12   RATE    -13.8282    
 BOUNDARY     13   LAYER   1   ROW     1   COL    13   RATE     0.00000    
 BOUNDARY     14   LAYER   1   ROW     1   COL    14   RATE     0.00000    
 BOUNDARY     15   LAYER   1   ROW     1   COL    15   RATE     0.00000    
 BOUNDARY     16   LAYER   1   ROW     2   COL     1   RATE     0.00000    
 BOUNDARY     17   LAYER   1   ROW     2   COL     2   RATE    -3.68865    
 BOUNDARY     18   LAYER   1   ROW     2   COL     3   RATE    -23.2349    
 BOUNDARY     19   LAYER   1   ROW     2   COL     4   RATE    -81.9792    
 BOUNDARY     20   LAYER   1   ROW     2   COL     5   RATE    -81.9792    
 BOUNDARY     21   LAYER   1   ROW     2   COL     6   RATE    -81.9792    
 BOUNDARY     22   LAYER   1   ROW     2   COL     7   RATE    -81.9792    
 BOUNDARY     23   LAYER   1   ROW     2   COL     8   RATE    -81.9792    
 BOUNDARY     24   LAYER   1   ROW     2   COL     9   RATE    -81.9792    
 BOUNDARY     25   LAYER   1   ROW     2   COL    10   RATE    -81.9792    
 BOUNDARY     26   LAYER   1   ROW     2   COL    11   RATE    -81.9792    
 BOUNDARY     27   LAYER   1   ROW     2   COL    12   RATE    -15.2559    
 BOUNDARY     28   LAYER   1   ROW     2   COL    13   RATE   -9.564582E-02
 BOUNDARY     29   LAYER   1   ROW     2   COL    14   RATE     0.00000    
 BOUNDARY     30   LAYER   1   ROW     2   COL    15   RATE     0.00000    
 BOUNDARY     31   LAYER   1   ROW     3   COL     1   RATE     0.00000    
 BOUNDARY     32   LAYER   1   ROW     3   COL     2   RATE     0.00000    
 BOUNDARY     33   LAYER   1   ROW     3   COL     3   RATE    -18.3379    
 BOUNDARY     34   LAYER   1   ROW     3   COL     4   RATE    -81.9792    
 BOUNDARY     35   LAYER   1   ROW     3   COL     5   RATE    -81.9792    
 BOUNDARY     36   LAYER   1   ROW     3   COL     6   RATE    -81.9792    
 BOUNDARY     37   LAYER   1   ROW     3   COL     7   RATE    -81.9792    
 BOUNDARY     38   LAYER   1   ROW     3   COL     8   RATE    -81.9792    
 BOUNDARY     39   LAYER   1   ROW     3   COL     9   RATE    -81.9792    
 BOUNDARY     40   LAYER   1   ROW     3   COL    10   RATE    -81.9792    
 BOUNDARY     41   LAYER   1   ROW     3   COL    11   RATE    -81.9792    
 BOUNDARY     42   LAYER   1   ROW     3   COL    12   RATE    -17.6642    
 BOUNDARY     43   LAYER   1   ROW     3   COL    13   RATE    -1.56118    
 BOUNDARY     44   LAYER   1   ROW     3   COL    14   RATE     0.00000    
 BOUNDARY     45   LAYER   1   ROW     3   COL    15   RATE     0.00000    
 BOUNDARY     46   LAYER   1   ROW     4   COL     1   RATE     0.00000    
 BOUNDARY     47   LAYER   1   ROW     4   COL     2   RATE    -2.44682    
 BOUNDARY     48   LAYER   1   ROW     4   COL     3   RATE    -21.5099    
 BOUNDARY     49   LAYER   1   ROW     4   COL     4   RATE    -81.9792    
 BOUNDARY     50   LAYER   1   ROW     4   COL     5   RATE    -81.9792    
 BOUNDARY     51   LAYER   1   ROW     4   COL     6   RATE    -81.9792    
 BOUNDARY     52   LAYER   1   ROW     4   COL     7   RATE    -81.9792    
 BOUNDARY     53   LAYER   1   ROW     4   COL     8   RATE    -81.9792    
 BOUNDARY     54   LAYER   1   ROW     4   COL     9   RATE    -81.9792    
 BOUNDARY     55   LAYER   1   ROW     4   COL    10   RATE    -81.9792    
 BOUNDARY     56   LAYER   1   ROW     4   COL    11   RATE    -81.9792    
 BOUNDARY     57   LAYER   1   ROW     4   COL    12   RATE    -19.9628    
 BOUNDARY     58   LAYER   1   ROW     4   COL    13   RATE    -2.76098    
 BOUNDARY     59   LAYER   1   ROW     4   COL    14   RATE     0.00000    
 BOUNDARY     60   LAYER   1   ROW     4   COL    15   RATE     0.00000    
 BOUNDARY     61   LAYER   1   ROW     5   COL     1   RATE     0.00000    
 BOUNDARY     62   LAYER   1   ROW     5   COL     2   RATE    -4.88564    
 BOUNDARY     63   LAYER   1   ROW     5   COL     3   RATE    -25.5836    
 BOUNDARY     64   LAYER   1   ROW     5   COL     4   RATE    -81.9792    
 BOUNDARY     65   LAYER   1   ROW     5   COL     5   RATE    -81.9792    
 BOUNDARY     66   LAYER   1   ROW     5   COL     6   RATE    -81.9792    
 BOUNDARY     67   LAYER   1   ROW     5   COL     7   RATE    -81.9792    
 BOUNDARY     68   LAYER   1   ROW     5   COL     8   RATE    -81.9792    
 BOUNDARY     69   LAYER   1   ROW     5   COL     9   RATE    -81.9792    
 BOUNDARY     70   LAYER   1   ROW     5   COL    10   RATE    -81.9792    
 BOUNDARY     71   LAYER   1   ROW     5   COL    11   RATE    -81.9792    
 BOUNDARY     72   LAYER   1   ROW     5   COL    12   RATE    -21.5542    
 BOUNDARY     73   LAYER   1   ROW     5   COL    13   RATE    -3.50621    
 BOUNDARY     74   LAYER   1   ROW     5   COL    14   RATE     0.00000    
 BOUNDARY     75   LAYER   1   ROW     5   COL    15   RATE     0.00000    
 BOUNDARY     76   LAYER   1   ROW     6   COL     1   RATE     0.00000    
 BOUNDARY     77   LAYER   1   ROW     6   COL     2   RATE    -3.71386    
 BOUNDARY     78   LAYER   1   ROW     6   COL     3   RATE    -28.7734    
 BOUNDARY     79   LAYER   1   ROW     6   COL     4   RATE    -81.9792    
 BOUNDARY     80   LAYER   1   ROW     6   COL     5   RATE    -81.9792    
 BOUNDARY     81   LAYER   1   ROW     6   COL     6   RATE    -81.9792    
 BOUNDARY     82   LAYER   1   ROW     6   COL     7   RATE    -81.9792    
 BOUNDARY     83   LAYER   1   ROW     6   COL     8   RATE    -81.9792    
 BOUNDARY     84   LAYER   1   ROW     6   COL     9   RATE    -81.9792    
 BOUNDARY     85   LAYER   1   ROW     6   COL    10   RATE    -81.9792    
 BOUNDARY     86   LAYER   1   ROW     6   COL    11   RATE    -81.9792    
 BOUNDARY     87   LAYER   1   ROW     6   COL    12   RATE    -22.0873    
 BOUNDARY     88   LAYER   1   ROW     6   COL    13   RATE    -3.47261    
 BOUNDARY     89   LAYER   1   ROW     6   COL    14   RATE     0.00000    
 BOUNDARY     90   LAYER   1   ROW     6   COL    15   RATE     0.00000    
 BOUNDARY     91   LAYER   1   ROW     7   COL     1   RATE     0.00000    
 BOUNDARY     92   LAYER   1   ROW     7   COL     2   RATE   -0.847344    
 BOUNDARY     93   LAYER   1   ROW     7   COL     3   RATE    -34.4835    
 BOUNDARY     94   LAYER   1   ROW     7   COL     4   RATE    -81.9792    
 BOUNDARY     95   LAYER   1   ROW     7   COL     5   RATE    -81.9792    
 BOUNDARY     96   LAYER   1   ROW     7   COL     6   RATE    -81.9792    
 BOUNDARY     97   LAYER   1   ROW     7   COL     7   RATE    -81.9792    
 BOUNDARY     98   LAYER   1   ROW     7   COL     8   RATE    -81.9792    
 BOUNDARY     99   LAYER   1   ROW     7   COL     9   RATE    -81.9792    
 BOUNDARY    100   LAYER   1   ROW     7   COL    10   RATE    -81.9792    
 BOUNDARY    101   LAYER   1   ROW     7   COL    11   RATE    -81.9792    
 BOUNDARY    102   LAYER   1   ROW     7   COL    12   RATE    -21.9546    
 BOUNDARY    103   LAYER   1   ROW     7   COL    13   RATE    -2.87295    
 BOUNDARY    104   LAYER   1   ROW     7   COL    14   RATE     0.00000    
 BOUNDARY    105   LAYER   1   ROW     7   COL    15   RATE     0.00000    
 BOUNDARY    106   LAYER   1   ROW     8   COL     1   RATE     0.00000    
 BOUNDARY    107   LAYER   1   ROW     8   COL     2   RATE    -9.30139    
 BOUNDARY    108   LAYER   1   ROW     8   COL     3   RATE    -81.9792    
 BOUNDARY    109   LAYER   1   ROW     8   COL     4   RATE    -81.9792    
 BOUNDARY    110   LAYER   1   ROW     8   COL     5   RATE    -81.9792    
 BOUNDARY    111   LAYER   1   ROW     8   COL     6   RATE    -81.9792    
 BOUNDARY    112   LAYER   1   ROW     8   COL     7   RATE    -81.9792    
 BOUNDARY    113   LAYER   1   ROW     8   COL     8   RATE    -81.9792    
 BOUNDARY    114   LAYER   1   ROW     8   COL     9   RATE    -81.9792    
 BOUNDARY    115   LAYER   1   ROW     8   COL    10   RATE    -81.9792    
 BOUNDARY    116   LAYER   1   ROW     8   COL    11   RATE    -81.9792    
 BOUNDARY    117   LAYER   1   ROW     8   COL    12   RATE    -22.2727    
 BOUNDARY    118   LAYER   1   ROW     8   COL    13   RATE    -2.87593    
 BOUNDARY    119   LAYER   1   ROW     8   COL    14   RATE     0.00000    
 BOUNDARY    120   LAYER   1   ROW     8   COL    15   RATE     0.00000    
 BOUNDARY    121   LAYER   1   ROW     9   COL     1   RATE    -15.5203    
 BOUNDARY    122   LAYER   1   ROW     9   COL     2   RATE    -50.2147    
 BOUNDARY    123   LAYER   1   ROW     9   COL     3   RATE    -81.9792    
 BOUNDARY    124   LAYER   1   ROW     9   COL     4   RATE    -81.9792    
 BOUNDARY    125   LAYER   1   ROW     9   COL     5   RATE    -81.9792    
 BOUNDARY    126   LAYER   1   ROW     9   COL     6   RATE    -81.9792    
 BOUNDARY    127   LAYER   1   ROW     9   COL     7   RATE    -81.9792    
 BOUNDARY    128   LAYER   1   ROW     9   COL     8   RATE    -81.9792    
 BOUNDARY    129   LAYER   1   ROW     9   COL     9   RATE    -81.9792    
 BOUNDARY    130   LAYER   1   ROW     9   COL    10   RATE    -81.9792    
 BOUNDARY    131   LAYER   1   ROW     9   COL    11   RATE    -81.9792    
 BOUNDARY    132   LAYER   1   ROW     9   COL    12   RATE    -23.1735    
 BOUNDARY    133   LAYER   1   ROW     9   COL    13   RATE    -3.54960    
 BOUNDARY    134   LAYER   1   ROW     9   COL    14   RATE     0.00000    
 BOUNDARY    135   LAYER   1   ROW     9   COL    15   RATE     0.00000    
 BOUNDARY    136   LAYER   1   ROW    10   COL     1   RATE    -56.9855    
 BOUNDARY    137   LAYER   1   ROW    10   COL     2   RATE    -81.9792    
 BOUNDARY    138   LAYER   1   ROW    10   COL     3   RATE    -81.9792    
 BOUNDARY    139   LAYER   1   ROW    10   COL     4   RATE    -81.9792    
 BOUNDARY    140   LAYER   1   ROW    10   COL     5   RATE    -81.9792    
 BOUNDARY    141   LAYER   1   ROW    10   COL     6   RATE    -81.9792    
 BOUNDARY    142   LAYER   1   ROW    10   COL     7   RATE    -81.9792    
 BOUNDARY    143   LAYER   1   ROW    10   COL     8   RATE    -81.9792    
 BOUNDARY    144   LAYER   1   ROW    10   COL     9   RATE    -81.9792    
 BOUNDARY    145   LAYER   1   ROW    10   COL    10   RATE    -81.9792    
 BOUNDARY    146   LAYER   1   ROW    10   COL    11   RATE    -81.9792    
 BOUNDARY    147   LAYER   1   ROW    10   COL    12   RATE    -23.8262    
 BOUNDARY    148   LAYER   1   ROW    10   COL    13   RATE    -3.98233    
 BOUNDARY    149   LAYER   1   ROW    10   COL    14   RATE     0.00000    
 BOUNDARY    150   LAYER   1   ROW    10   COL    15   RATE     0.00000    

 HEAD WILL BE SAVED ON UNIT 1017 AT END OF TIME STEP    2, STRESS PERIOD    3
WEL   no.    2 value from time series:   0.0000     for time:  34.00     to  35.00    
WEL   no.    3 value from time series:   0.0000     for time:  34.00     to  35.00    
RIV   no.    1 value from time series:   101.00     for time:  34.00     to  35.00    
RIV   no.    2 value from time series:   101.00     for time:  34.00     to  35.00    
RIV   no.    3 value from time series:   111.50     for time:  34.00     to  35.00    
RIV   no.    4 value from time series:   111.50     for time:  34.00     to  35.00    
RIV   no.    5 value from time series:   115.10     for time:  34.00     to  35.00    
RIV   no.    6 value from time series:   115.10     for time:  34.00     to  35.00    
RIV   no.    7 value from time series:   104.00     for time:  34.00     to  35.00    
RIV   no.    8 value from time series:   104.00     for time:  34.00     to  35.00    
RIV   no.    9 value from time series:   113.50     for time:  34.00     to  35.00    
RIV   no.   10 value from time series:   113.50     for time:  34.00     to  35.00    
WEL   no.    2 value from time series:   0.0000     for time:  34.00     to  35.00    
WEL   no.    3 value from time series:   0.0000     for time:  34.00     to  35.00    
RIV   no.    1 value from time series:   101.00     for time:  34.00     to  35.00    
RIV   no.    2 value from time series:   101.00     for time:  34.00     to  35.00    
RIV   no.    3 value from time series:   111.50     for time:  34.00     to  35.00    
RIV   no.    4 value from time series:   111.50     for time:  34.00     to  35.00    
RIV   no.    5 value from time series:   115.10     for time:  34.00     to  35.00    
RIV   no.    6 value from time series:   115.10     for time:  34.00     to  35.00    
RIV   no.    7 value from time series:   104.00     for time:  34.00     to  35.00    
RIV   no.    8 value from time series:   104.00     for time:  34.00     to  35.00    
RIV   no.    9 value from time series:   113.50     for time:  34.00     to  35.00    
RIV   no.   10 value from time series:   113.50     for time:  34.00     to  35.00    

 OUTPUT CONTROL FOR STRESS PERIOD    3   TIME STEP    3
    SAVE BUDGET
    SAVE HEAD
    SAVE HEAD FOR ALL LAYERS
 UBDSV1 SAVING          STORAGE ON UNIT   1016 AT TIME STEP      3, STRESS PERIOD      3
 UBDSV1 SAVING FLOW RIGHT FACE  ON UNIT   1016 AT TIME STEP      3, STRESS PERIOD      3
 UBDSV1 SAVING FLOW FRONT FACE  ON UNIT   1016 AT TIME STEP      3, STRESS PERIOD      3
 UBDSV1 SAVING FLOW LOWER FACE  ON UNIT   1016 AT TIME STEP      3, STRESS PERIOD      3
 UBDSV4 SAVING WELLS NEAR RIVER ON UNIT   1016 AT TIME STEP      3, STRESS PERIOD      3

 WELLS NEAR RIVER   PERIOD  3   STEP  3
 BOUNDARY      1   LAYER   1   ROW     2   COL     3   RATE    -50.0000    
 BOUNDARY      2   LAYER   2   ROW     3   COL     4   RATE     0.00000      WELL_1
 BOUNDARY      3   LAYER   2   ROW     8   COL     4   RATE     0.00000      WELL_2
 UBDSV4 SAVING RIVER            ON UNIT   1016 AT TIME STEP      3, STRESS PERIOD      3

 RIVER              PERIOD  3   STEP  3
 BOUNDARY      1   LAYER   1   ROW     1   COL    15   RATE    -4869.10    
 BOUNDARY      2   LAYER   1   ROW     2   COL    15   RATE    -5973.53      RIV2
 BOUNDARY      3   LAYER   1   ROW     3   COL    15   RATE    -2180.99      RIV3
 BOUNDARY      4   LAYER   1   ROW     4   COL    15   RATE    -3636.68    
 BOUNDARY      5   LAYER   1   ROW     5   COL    15   RATE    -2282.80    
 BOUNDARY      6   LAYER   1   ROW     6   COL    15   RATE    -1641.22    
 BOUNDARY      7   LAYER   1   ROW     7   COL    15   RATE    -6136.26      RIVX
 BOUNDARY      8   LAYER   1   ROW     8   COL    15   RATE    -5964.07      RIVX
 BOUNDARY      9   LAYER   1   ROW     9   COL    15   RATE    -2135.09      RIVX
 BOUNDARY     10   LAYER   1   ROW    10   COL    15   RATE    -3020.61    

 GHB LAKES          PERIOD  3   STEP  3
 BOUNDARY      1   LAYER   1   ROW     3   COL     1   RATE    -14467.3    
 BOUNDARY      2   LAYER   1   ROW     7   COL     1   RATE    -1842.64      GHB2_UPPER
 BOUNDARY      3   LAYER   1   ROW     7   COL     1   RATE    -13235.6      GHB2_LOWER
 UBDSV4 SAVING RECHARGE         ON UNIT   1016 AT TIME STEP      3, STRESS PERIOD      3

 RECHARGE           PERIOD  3   STEP  3
 BOUNDARY      1   LAYER   1   ROW     1   COL     1   RATE     571.875    
 BOUNDARY      2   LAYER   1   ROW     1   COL     2   RATE     571.875    
 BOUNDARY      3   LAYER   1   ROW     1   COL     3   RATE     571.875    
 BOUNDARY      4   LAYER   1   ROW     1   COL     4   RATE     571.875    
 BOUNDARY      5   LAYER   1   ROW     1   COL     5   RATE     571.875    
 BOUNDARY      6   LAYER   1   ROW     1   COL     6   RATE     571.875    
 BOUNDARY      7   LAYER   1   ROW     1   COL     7   RATE     571.875    
 BOUNDARY      8   LAYER   1   ROW     1   COL     8   RATE     571.875    
 BOUNDARY      9   LAYER   1   ROW     1   COL     9   RATE     571.875    
 BOUNDARY     10   LAYER   1   ROW     1   COL    10   RATE     571.875    
 BOUNDARY     11   LAYER   1   ROW     1   COL    11   RATE     571.875    
 BOUNDARY     12   LAYER   1   ROW     1   COL    12   RATE     571.875    
 BOUNDARY     13   LAYER   1   ROW     1   COL    13   RATE     571.875    
 BOUNDARY     14   LAYER   1   ROW     1   COL    14   RATE     571.875    
 BOUNDARY     15   LAYER   1   ROW     1   COL    15   RATE     571.875    
 BOUNDARY     16   LAYER   1   ROW     2   COL     1   RATE     571.875    
 BOUNDARY     17   LAYER   1   ROW     2   COL     2   RATE     571.875    
 BOUNDARY     18   LAYER   1   ROW     2   COL     3   RATE     571.875    
 BOUNDARY     19   LAYER   1   ROW     2   COL     4   RATE     571.875    
 BOUNDARY     20   LAYER   1   ROW     2   COL     5   RATE     571.875    
 BOUNDARY     21   LAYER   1   ROW     2   COL     6   RATE     571.875    
 BOUNDARY     22   LAYER   1   ROW     2   COL     7   RATE     571.875    
 BOUNDARY     23   LAYER   1   ROW     2   COL     8   RATE     571.875    
 BOUNDARY     24   LAYER   1   ROW     2   COL     9   RATE     571.875    
 BOUNDARY     25   LAYER   1   ROW     2   COL    10   RATE     571.875    
 BOUNDARY     26   LAYER   1   ROW     2   COL    11   RATE     571.875    
 BOUNDARY     27   LAYER   1   ROW     2   COL    12   RATE     571.875    
 BOUNDARY     28   LAYER   1   ROW     2   COL    13   RATE     571.875    
 BOUNDARY     29   LAYER   1   ROW     2   COL    14   RATE     571.875    
 BOUNDARY     30   LAYER   1   ROW     2   COL    15   RATE     571.875    
 BOUNDARY     31   LAYER   1   ROW     3   COL     1   RATE     571.875    
 BOUNDARY     32   LAYER   1   ROW     3   COL     2   RATE     571.875    
 BOUNDARY     33   LAYER   1   ROW     3   COL     3   RATE     571.875    
 BOUNDARY     34   LAYER   1   ROW     3   COL     4   RATE     571.875    
 BOUNDARY     35   LAYER   1   ROW     3   COL     5   RATE     571.875    
 BOUNDARY     36   LAYER   1   ROW     3   COL     6   RATE     571.875    
 BOUNDARY     37   LAYER   1   ROW     3   COL     7   RATE     571.875    
 BOUNDARY     38   LAYER   1   ROW     3   COL     8   RATE     571.875    
 BOUNDARY     39   LAYER   1   ROW     3   COL     9   RATE     571.875    
 BOUNDARY     40   LAYER   1   ROW     3   COL    10   RATE     571.875    
 BOUNDARY     41   LAYER   1   ROW     3   COL    11   RATE     571.875    
 BOUNDARY     42   LAYER   1   ROW     3   COL    12   RATE     571.875    
 BOUNDARY     43   LAYER   1   ROW     3   COL    13   RATE     571.875    
 BOUNDARY     44   LAYER   1   ROW     3   COL    14   RATE     571.875    
 BOUNDARY     45   LAYER   1   ROW     3   COL    15   RATE     571.875    
 BOUNDARY     46   LAYER   1   ROW     4   COL     1   RATE     571.875    
 BOUNDARY     47   LAYER   1   ROW     4   COL     2   RATE     571.875    
 BOUNDARY     48   LAYER   1   ROW     4   COL     3   RATE     571.875    
 BOUNDARY     49   LAYER   1   ROW     4   COL     4   RATE     571.875    
 BOUNDARY     50   LAYER   1   ROW     4   COL     5   RATE     571.875    
 BOUNDARY     51   LAYER   1   ROW     4   COL     6   RATE     571.875    
 BOUNDARY     52   LAYER   1   ROW     4   COL     7   RATE     571.875    
 BOUNDARY     53   LAYER   1   ROW     4   COL     8   RATE     571.875    
 BOUNDARY     54   LAYER   1   ROW     4   COL     9   RATE     571.875    
 BOUNDARY     55   LAYER   1   ROW     4   COL    10   RATE     571.875    
 BOUNDARY     56   LAYER   1   ROW     4   COL    11   RATE     571.875    
 BOUNDARY     57   LAYER   1   ROW     4   COL    12   RATE     571.875    
 BOUNDARY     58   LAYER   1   ROW     4   COL    13   RATE     571.875    
 BOUNDARY     59   LAYER   1   ROW     4   COL    14   RATE     571.875    
 BOUNDARY     60   LAYER   1   ROW     4   COL    15   RATE     571.875    
 BOUNDARY     61   LAYER   1   ROW     5   COL     1   RATE     571.875    
 BOUNDARY     62   LAYER   1   ROW     5   COL     2   RATE     571.875    
 BOUNDARY     63   LAYER   1   ROW     5   COL     3   RATE     571.875    
 BOUNDARY     64   LAYER   1   ROW     5   COL     4   RATE     571.875    
 BOUNDARY     65   LAYER   1   ROW     5   COL     5   RATE     571.875    
 BOUNDARY     66   LAYER   1   ROW     5   COL     6   RATE     571.875    
 BOUNDARY     67   LAYER   1   ROW     5   COL     7   RATE     571.875    
 BOUNDARY     68   LAYER   1   ROW     5   COL     8   RATE     571.875    
 BOUNDARY     69   LAYER   1   ROW     5   COL     9   RATE     571.875    
 BOUNDARY     70   LAYER   1   ROW     5   COL    10   RATE     571.875    
 BOUNDARY     71   LAYER   1   ROW     5   COL    11   RATE     571.875    
 BOUNDARY     72   LAYER   1   ROW     5   COL    12   RATE     571.875    
 BOUNDARY     73   LAYER   1   ROW     5   COL    13   RATE     571.875    
 BOUNDARY     74   LAYER   1   ROW     5   COL    14   RATE     571.875    
 BOUNDARY     75   LAYER   1   ROW     5   COL    15   RATE     571.875    
 BOUNDARY     76   LAYER   1   ROW     6   COL     1   RATE     571.875    
 BOUNDARY     77   LAYER   1   ROW     6   COL     2   RATE     571.875    
 BOUNDARY     78   LAYER   1   ROW     6   COL     3   RATE     571.875    
 BOUNDARY     79   LAYER   1   ROW     6   COL     4   RATE     571.875    
 BOUNDARY     80   LAYER   1   ROW     6   COL     5   RATE     571.875    
 BOUNDARY     81   LAYER   1   ROW     6   COL     6   RATE     571.875    
 BOUNDARY     82   LAYER   1   ROW     6   COL     7   RATE     571.875    
 BOUNDARY     83   LAYER   1   ROW     6   COL     8   RATE     571.875    
 BOUNDARY     84   LAYER   1   ROW     6   COL     9   RATE     571.875    
 BOUNDARY     85   LAYER   1   ROW     6   COL    10   RATE     571.875    
 BOUNDARY     86   LAYER   1   ROW     6   COL    11   RATE     571.875    
 BOUNDARY     87   LAYER   1   ROW     6   COL    12   RATE     571.875    
 BOUNDARY     88   LAYER   1   ROW     6   COL    13   RATE     571.875    
 BOUNDARY     89   LAYER   1   ROW     6   COL    14   RATE     571.875    
 BOUNDARY     90   LAYER   1   ROW     6   COL    15   RATE     571.875    
 BOUNDARY     91   LAYER   1   ROW     7   COL     1   RATE     571.875    
 BOUNDARY     92   LAYER   1   ROW     7   COL     2   RATE     571.875    
 BOUNDARY     93   LAYER   1   ROW     7   COL     3   RATE     571.875    
 BOUNDARY     94   LAYER   1   ROW     7   COL     4   RATE     571.875    
 BOUNDARY     95   LAYER   1   ROW     7   COL     5   RATE     571.875    
 BOUNDARY     96   LAYER   1   ROW     7   COL     6   RATE     571.875    
 BOUNDARY     97   LAYER   1   ROW     7   COL     7   RATE     571.875    
 BOUNDARY     98   LAYER   1   ROW     7   COL     8   RATE     571.875    
 BOUNDARY     99   LAYER   1   ROW     7   COL     9   RATE     571.875    
 BOUNDARY    100   LAYER   1   ROW     7   COL    10   RATE     571.875    
 BOUNDARY    101   LAYER   1   ROW     7   COL    11   RATE     571.875    
 BOUNDARY    102   LAYER   1   ROW     7   COL    12   RATE     571.875    
 BOUNDARY    103   LAYER   1   ROW     7   COL    13   RATE     571.875    
 BOUNDARY    104   LAYER   1   ROW     7   COL    14   RATE     571.875    
 BOUNDARY    105   LAYER   1   ROW     7   COL    15   RATE     571.875    
 BOUNDARY    106   LAYER   1   ROW     8   COL     1   RATE     571.875    
 BOUNDARY    107   LAYER   1   ROW     8   COL     2   RATE     571.875    
 BOUNDARY    108   LAYER   1   ROW     8   COL     3   RATE     571.875    
 BOUNDARY    109   LAYER   1   ROW     8   COL     4   RATE     571.875    
 BOUNDARY    110   LAYER   1   ROW     8   COL     5   RATE     571.875    
 BOUNDARY    111   LAYER   1   ROW     8   COL     6   RATE     571.875    
 BOUNDARY    112   LAYER   1   ROW     8   COL     7   RATE     571.875    
 BOUNDARY    113   LAYER   1   ROW     8   COL     8   RATE     571.875    
 BOUNDARY    114   LAYER   1   ROW     8   COL     9   RATE     571.875    
 BOUNDARY    115   LAYER   1   ROW     8   COL    10   RATE     571.875    
 BOUNDARY    116   LAYER   1   ROW     8   COL    11   RATE     571.875    
 BOUNDARY    117   LAYER   1   ROW     8   COL    12   RATE     571.875    
 BOUNDARY    118   LAYER   1   ROW     8   COL    13   RATE     571.875    
 BOUNDARY    119   LAYER   1   ROW     8   COL    14   RATE     571.875    
 BOUNDARY    120   LAYER   1   ROW     8   COL    15   RATE     571.875    
 BOUNDARY    121   LAYER   1   ROW     9   COL     1   RATE     571.875    
 BOUNDARY    122   LAYER   1   ROW     9   COL     2   RATE     571.875    
 BOUNDARY    123   LAYER   1   ROW     9   COL     3   RATE     571.875    
 BOUNDARY    124   LAYER   1   ROW     9   COL     4   RATE     571.875    
 BOUNDARY    125   LAYER   1   ROW     9   COL     5   RATE     571.875    
 BOUNDARY    126   LAYER   1   ROW     9   COL     6   RATE     571.875    
 BOUNDARY    127   LAYER   1   ROW     9   COL     7   RATE     571.875    
 BOUNDARY    128   LAYER   1   ROW     9   COL     8   RATE     571.875    
 BOUNDARY    129   LAYER   1   ROW     9   COL     9   RATE     571.875    
 BOUNDARY    130   LAYER   1   ROW     9   COL    10   RATE     571.875    
 BOUNDARY    131   LAYER   1   ROW     9   COL    11   RATE     571.875    
 BOUNDARY    132   LAYER   1   ROW     9   COL    12   RATE     571.875    
 BOUNDARY    133   LAYER   1   ROW     9   COL    13   RATE     571.875    
 BOUNDARY    134   LAYER   1   ROW     9   COL    14   RATE     571.875    
 BOUNDARY    135   LAYER   1   ROW     9   COL    15   RATE     571.875    
 BOUNDARY    136   LAYER   1   ROW    10   COL     1   RATE     571.875    
 BOUNDARY    137   LAYER   1   ROW    10   COL     2   RATE     571.875    
 BOUNDARY    138   LAYER   1   ROW    10   COL     3   RATE     571.875    
 BOUNDARY    139   LAYER   1   ROW    10   COL     4   RATE     571.875    
 BOUNDARY    140   LAYER   1   ROW    10   COL     5   RATE     571.875    
 BOUNDARY    141   LAYER   1   ROW    10   COL     6   RATE     571.875    
 BOUNDARY    142   LAYER   1   ROW    10   COL     7   RATE     571.875    
 BOUNDARY    143   LAYER   1   ROW    10   COL     8   RATE     571.875    
 BOUNDARY    144   LAYER   1   ROW    10   COL     9   RATE     571.875    
 BOUNDARY    145   LAYER   1   ROW    10   COL    10   RATE     571.875    
 BOUNDARY    146   LAYER   1   ROW    10   COL    11   RATE     571.875    
 BOUNDARY    147   LAYER   1   ROW    10   COL    12   RATE     571.875    
 BOUNDARY    148   LAYER   1   ROW    10   COL    13   RATE     571.875    
 BOUNDARY    149   LAYER   1   ROW    10   COL    14   RATE     571.875    
 BOUNDARY    150   LAYER   1   ROW    10   COL    15   RATE     571.875    
 UBDSV4 SAVING ET SEGS          ON UNIT   1016 AT TIME STEP      3, STRESS PERIOD      3

 ET SEGS            PERIOD  3   STEP  3
 BOUNDARY      1   LAYER   1   ROW     1   COL     1   RATE    -1.77922    
 BOUNDARY      2   LAYER   1   ROW     1   COL     2   RATE    -7.41643    
 BOUNDARY      3   LAYER   1   ROW     1   COL     3   RATE    -40.9416    
 BOUNDARY      4   LAYER   1   ROW     1   COL     4   RATE    -82.1875    
 BOUNDARY      5   LAYER   1   ROW     1   COL     5   RATE    -82.1875    
 BOUNDARY      6   LAYER   1   ROW     1   COL     6   RATE    -82.1875    
 BOUNDARY      7   LAYER   1   ROW     1   COL     7   RATE    -82.1875    
 BOUNDARY      8   LAYER   1   ROW     1   COL     8   RATE    -82.1875    
 BOUNDARY      9   LAYER   1   ROW     1   COL     9   RATE    -82.1875    
 BOUNDARY     10   LAYER   1   ROW     1   COL    10   RATE    -82.1875    
 BOUNDARY     11   LAYER   1   ROW     1   COL    11   RATE    -82.1875    
 BOUNDARY     12   LAYER   1   ROW     1   COL    12   RATE    -13.8808    
 BOUNDARY     13   LAYER   1   ROW     1   COL    13   RATE     0.00000    
 BOUNDARY     14   LAYER   1   ROW     1   COL    14   RATE     0.00000    
 BOUNDARY     15   LAYER   1   ROW     1   COL    15   RATE     0.00000    
 BOUNDARY     16   LAYER   1   ROW     2   COL     1   RATE     0.00000    
 BOUNDARY     17   LAYER   1   ROW     2   COL     2   RATE    -3.70266    
 BOUNDARY     18   LAYER   1   ROW     2   COL     3   RATE    -23.3016    
 BOUNDARY     19   LAYER   1   ROW     2   COL     4   RATE    -82.1875    
 BOUNDARY     20   LAYER   1   ROW     2   COL     5   RATE    -82.1875    
 BOUNDARY     21   LAYER   1   ROW     2   COL     6   RATE    -82.1875    
 BOUNDARY     22   LAYER   1   ROW     2   COL     7   RATE    -82.1875    
 BOUNDARY     23   LAYER   1   ROW     2   COL     8   RATE    -82.1875    
 BOUNDARY     24   LAYER   1   ROW     2   COL     9   RATE    -82.1875    
 BOUNDARY     25   LAYER   1   ROW     2   COL    10   RATE    -82.1875    
 BOUNDARY     26   LAYER   1   ROW     2   COL    11   RATE    -82.1875    
 BOUNDARY     27   LAYER   1   ROW     2   COL    12   RATE    -15.3122    
 BOUNDARY     28   LAYER   1   ROW     2   COL    13   RATE   -0.101397    
 BOUNDARY     29   LAYER   1   ROW     2   COL    14   RATE     0.00000    
 BOUNDARY     30   LAYER   1   ROW     2   COL    15   RATE     0.00000    
 BOUNDARY     31   LAYER   1   ROW     3   COL     1   RATE     0.00000    
 BOUNDARY     32   LAYER   1   ROW     3   COL     2   RATE     0.00000    
 BOUNDARY     33   LAYER   1   ROW     3   COL     3   RATE    -18.4010    
 BOUNDARY     34   LAYER   1   ROW     3   COL     4   RATE    -82.1875    
 BOUNDARY     35   LAYER   1   ROW     3   COL     5   RATE    -82.1875    
 BOUNDARY     36   LAYER   1   ROW     3   COL     6   RATE    -82.1875    
 BOUNDARY     37   LAYER   1   ROW     3   COL     7   RATE    -82.1875    
 BOUNDARY     38   LAYER   1   ROW     3   COL     8   RATE    -82.1875    
 BOUNDARY     39   LAYER   1   ROW     3   COL     9   RATE    -82.1875    
 BOUNDARY     40   LAYER   1   ROW     3   COL    10   RATE    -82.1875    
 BOUNDARY     41   LAYER   1   ROW     3   COL    11   RATE    -82.1875    
 BOUNDARY     42   LAYER   1   ROW     3   COL    12   RATE    -17.7266    
 BOUNDARY     43   LAYER   1   ROW     3   COL    13   RATE    -1.57075    
 BOUNDARY     44   LAYER   1   ROW     3   COL    14   RATE     0.00000    
 BOUNDARY     45   LAYER   1   ROW     3   COL    15   RATE     0.00000    
 BOUNDARY     46   LAYER   1   ROW     4   COL     1   RATE     0.00000    
 BOUNDARY     47   LAYER   1   ROW     4   COL     2   RATE    -2.45775    
 BOUNDARY     48   LAYER   1   ROW     4   COL     3   RATE    -21.5815    
 BOUNDARY     49   LAYER   1   ROW     4   COL     4   RATE    -82.1875    
 BOUNDARY     50   LAYER   1   ROW     4   COL     5   RATE    -82.1875    
 BOUNDARY     51   LAYER   1   ROW     4   COL     6   RATE    -82.1875    
 BOUNDARY     52   LAYER   1   ROW     4   COL     7   RATE    -82.1875    
 BOUNDARY     53   LAYER   1   ROW     4   COL     8   RATE    -82.1875    
 BOUNDARY     54   LAYER   1   ROW     4   COL     9   RATE    -82.1875    
 BOUNDARY     55   LAYER   1   ROW     4   COL    10   RATE    -82.1875    
 BOUNDARY     56   LAYER   1   ROW     4   COL    11   RATE    -82.1875    
 BOUNDARY     57   LAYER   1   ROW     4   COL    12   RATE    -20.0310    
 BOUNDARY     58   LAYER   1   ROW     4   COL    13   RATE    -2.77342    
 BOUNDARY     59   LAYER   1   ROW     4   COL    14   RATE     0.00000    
 BOUNDARY     60   LAYER   1   ROW     4   COL    15   RATE     0.00000    
 BOUNDARY     61   LAYER   1   ROW     5   COL     1   RATE     0.00000    
 BOUNDARY     62   LAYER   1   ROW     5   COL     2   RATE    -4.90282    
 BOUNDARY     63   LAYER   1   ROW     5   COL     3   RATE    -25.7371    
 BOUNDARY     64   LAYER   1   ROW     5   COL     4   RATE    -82.1875    
 BOUNDARY     65   LAYER   1   ROW     5   COL     5   RATE    -82.1875    
 BOUNDARY     66   LAYER   1   ROW     5   COL     6   RATE    -82.1875    
 BOUNDARY     67   LAYER   1   ROW     5   COL     7   RATE    -82.1875    
 BOUNDARY     68   LAYER   1   ROW     5   COL     8   RATE    -82.1875    
 BOUNDARY     69   LAYER   1   ROW     5   COL     9   RATE    -82.1875    
 BOUNDARY     70   LAYER   1   ROW     5   COL    10   RATE    -82.1875    
 BOUNDARY     71   LAYER   1   ROW     5   COL    11   RATE    -82.1875    
 BOUNDARY     72   LAYER   1   ROW     5   COL    12   RATE    -21.6262    
 BOUNDARY     73   LAYER   1   ROW     5   COL    13   RATE    -3.52010    
 BOUNDARY     74   LAYER   1   ROW     5   COL    14   RATE     0.00000    
 BOUNDARY     75   LAYER   1   ROW     5   COL    15   RATE     0.00000    
 BOUNDARY     76   LAYER   1   ROW     6   COL     1   RATE     0.00000    
 BOUNDARY     77   LAYER   1   ROW     6   COL     2   RATE    -3.72800    
 BOUNDARY     78   LAYER   1   ROW     6   COL     3   RATE    -28.9353    
 BOUNDARY     79   LAYER   1   ROW     6   COL     4   RATE    -82.1875    
 BOUNDARY     80   LAYER   1   ROW     6   COL     5   RATE    -82.1875    
 BOUNDARY     81   LAYER   1   ROW     6   COL     6   RATE    -82.1875    
 BOUNDARY     82   LAYER   1   ROW     6   COL     7   RATE    -82.1875    
 BOUNDARY     83   LAYER   1   ROW     6   COL     8   RATE    -82.1875    
 BOUNDARY     84   LAYER   1   ROW     6   COL     9   RATE    -82.1875    
 BOUNDARY     85   LAYER   1   ROW     6   COL    10   RATE    -82.1875    
 BOUNDARY     86   LAYER   1   ROW     6   COL    11   RATE    -82.1875    
 BOUNDARY     87   LAYER   1   ROW     6   COL    12   RATE    -22.1607    
 BOUNDARY     88   LAYER   1   ROW     6   COL    13   RATE    -3.48633    
 BOUNDARY     89   LAYER   1   ROW     6   COL    14   RATE     0.00000    
 BOUNDARY     90   LAYER   1   ROW     6   COL    15   RATE     0.00000    
 BOUNDARY     91   LAYER   1   ROW     7   COL     1   RATE     0.00000    
 BOUNDARY     92   LAYER   1   ROW     7   COL     2   RATE   -0.854009    
 BOUNDARY     93   LAYER   1   ROW     7   COL     3   RATE    -34.6611    
 BOUNDARY     94   LAYER   1   ROW     7   COL     4   RATE    -82.1875    
 BOUNDARY     95   LAYER   1   ROW     7   COL     5   RATE    -82.1875    
 BOUNDARY     96   LAYER   1   ROW     7   COL     6   RATE    -82.1875    
 BOUNDARY     97   LAYER   1   ROW     7   COL     7   RATE    -82.1875    
 BOUNDARY     98   LAYER   1   ROW     7   COL     8   RATE    -82.1875    
 BOUNDARY     99   LAYER   1   ROW     7   COL     9   RATE    -82.1875    
 BOUNDARY    100   LAYER   1   ROW     7   COL    10   RATE    -82.1875    
 BOUNDARY    101   LAYER   1   ROW     7   COL    11   RATE    -82.1875    
 BOUNDARY    102   LAYER   1   ROW     7   COL    12   RATE    -22.0278    
 BOUNDARY    103   LAYER   1   ROW     7   COL    13   RATE    -2.88539    
 BOUNDARY    104   LAYER   1   ROW     7   COL    14   RATE     0.00000    
 BOUNDARY    105   LAYER   1   ROW     7   COL    15   RATE     0.00000    
 BOUNDARY    106   LAYER   1   ROW     8   COL     1   RATE     0.00000    
 BOUNDARY    107   LAYER   1   ROW     8   COL     2   RATE    -9.34156    
 BOUNDARY    108   LAYER   1   ROW     8   COL     3   RATE    -82.1875    
 BOUNDARY    109   LAYER   1   ROW     8   COL     4   RATE    -82.1875    
 BOUNDARY    110   LAYER   1   ROW     8   COL     5   RATE    -82.1875    
 BOUNDARY    111   LAYER   1   ROW     8   COL     6   RATE    -82.1875    
 BOUNDARY    112   LAYER   1   ROW     8   COL     7   RATE    -82.1875    
 BOUNDARY    113   LAYER   1   ROW     8   COL     8   RATE    -82.1875    
 BOUNDARY    114   LAYER   1   ROW     8   COL     9   RATE    -82.1875    
 BOUNDARY    115   LAYER   1   ROW     8   COL    10   RATE    -82.1875    
 BOUNDARY    116   LAYER   1   ROW     8   COL    11   RATE    -82.1875    
 BOUNDARY    117   LAYER   1   ROW     8   COL    12   RATE    -22.3469    
 BOUNDARY    118   LAYER   1   ROW     8   COL    13   RATE    -2.88868    
 BOUNDARY    119   LAYER   1   ROW     8   COL    14   RATE     0.00000    
 BOUNDARY    120   LAYER   1   ROW     8   COL    15   RATE     0.00000    
 BOUNDARY    121   LAYER   1   ROW     9   COL     1   RATE    -15.5764    
 BOUNDARY    122   LAYER   1   ROW     9   COL     2   RATE    -50.4338    
 BOUNDARY    123   LAYER   1   ROW     9   COL     3   RATE    -82.1875    
 BOUNDARY    124   LAYER   1   ROW     9   COL     4   RATE    -82.1875    
 BOUNDARY    125   LAYER   1   ROW     9   COL     5   RATE    -82.1875    
 BOUNDARY    126   LAYER   1   ROW     9   COL     6   RATE    -82.1875    
 BOUNDARY    127   LAYER   1   ROW     9   COL     7   RATE    -82.1875    
 BOUNDARY    128   LAYER   1   ROW     9   COL     8   RATE    -82.1875    
 BOUNDARY    129   LAYER   1   ROW     9   COL     9   RATE    -82.1875    
 BOUNDARY    130   LAYER   1   ROW     9   COL    10   RATE    -82.1875    
 BOUNDARY    131   LAYER   1   ROW     9   COL    11   RATE    -82.1875    
 BOUNDARY    132   LAYER   1   ROW     9   COL    12   RATE    -23.2504    
 BOUNDARY    133   LAYER   1   ROW     9   COL    13   RATE    -3.56460    
 BOUNDARY    134   LAYER   1   ROW     9   COL    14   RATE     0.00000    
 BOUNDARY    135   LAYER   1   ROW     9   COL    15   RATE     0.00000    
 BOUNDARY    136   LAYER   1   ROW    10   COL     1   RATE    -57.2218    
 BOUNDARY    137   LAYER   1   ROW    10   COL     2   RATE    -82.1875    
 BOUNDARY    138   LAYER   1   ROW    10   COL     3   RATE    -82.1875    
 BOUNDARY    139   LAYER   1   ROW    10   COL     4   RATE    -82.1875    
 BOUNDARY    140   LAYER   1   ROW    10   COL     5   RATE    -82.1875    
 BOUNDARY    141   LAYER   1   ROW    10   COL     6   RATE    -82.1875    
 BOUNDARY    142   LAYER   1   ROW    10   COL     7   RATE    -82.1875    
 BOUNDARY    143   LAYER   1   ROW    10   COL     8   RATE    -82.1875    
 BOUNDARY    144   LAYER   1   ROW    10   COL     9   RATE    -82.1875    
 BOUNDARY    145   LAYER   1   ROW    10   COL    10   RATE    -82.1875    
 BOUNDARY    146   LAYER   1   ROW    10   COL    11   RATE    -82.1875    
 BOUNDARY    147   LAYER   1   ROW    10   COL    12   RATE    -23.9048    
 BOUNDARY    148   LAYER   1   ROW    10   COL    13   RATE    -3.99863    
 BOUNDARY    149   LAYER   1   ROW    10   COL    14   RATE     0.00000    
 BOUNDARY    150   LAYER   1   ROW    10   COL    15   RATE     0.00000    

 HEAD WILL BE SAVED ON UNIT 1017 AT END OF TIME STEP    3, STRESS PERIOD    3
WEL   no.    2 value from time series:   0.0000     for time:  35.00     to  36.00    
WEL   no.    3 value from time series:   0.0000     for time:  35.00     to  36.00    
RIV   no.    1 value from time series:   101.00     for time:  35.00     to  36.00    
RIV   no.    2 value from time series:   101.00     for time:  35.00     to  36.00    
RIV   no.    3 value from time series:   111.50     for time:  35.00     to  36.00    
RIV   no.    4 value from time series:   111.50     for time:  35.00     to  36.00    
RIV   no.    5 value from time series:   115.10     for time:  35.00     to  36.00    
RIV   no.    6 value from time series:   115.10     for time:  35.00     to  36.00    
RIV   no.    7 value from time series:   104.00     for time:  35.00     to  36.00    
RIV   no.    8 value from time series:   104.00     for time:  35.00     to  36.00    
RIV   no.    9 value from time series:   113.50     for time:  35.00     to  36.00    
RIV   no.   10 value from time series:   113.50     for time:  35.00     to  36.00    
WEL   no.    2 value from time series:   0.0000     for time:  35.00     to  36.00    
WEL   no.    3 value from time series:   0.0000     for time:  35.00     to  36.00    
RIV   no.    1 value from time series:   101.00     for time:  35.00     to  36.00    
RIV   no.    2 value from time series:   101.00     for time:  35.00     to  36.00    
RIV   no.    3 value from time series:   111.50     for time:  35.00     to  36.00    
RIV   no.    4 value from time series:   111.50     for time:  35.00     to  36.00    
RIV   no.    5 value from time series:   115.10     for time:  35.00     to  36.00    
RIV   no.    6 value from time series:   115.10     for time:  35.00     to  36.00    
RIV   no.    7 value from time series:   104.00     for time:  35.00     to  36.00    
RIV   no.    8 value from time series:   104.00     for time:  35.00     to  36.00    
RIV   no.    9 value from time series:   113.50     for time:  35.00     to  36.00    
RIV   no.   10 value from time series:   113.50     for time:  35.00     to  36.00    

 OUTPUT CONTROL FOR STRESS PERIOD    3   TIME STEP    4
    SAVE BUDGET
    SAVE HEAD
    SAVE HEAD FOR ALL LAYERS
 UBDSV1 SAVING          STORAGE ON UNIT   1016 AT TIME STEP      4, STRESS PERIOD      3
 UBDSV1 SAVING FLOW RIGHT FACE  ON UNIT   1016 AT TIME STEP      4, STRESS PERIOD      3
 UBDSV1 SAVING FLOW FRONT FACE  ON UNIT   1016 AT TIME STEP      4, STRESS PERIOD      3
 UBDSV1 SAVING FLOW LOWER FACE  ON UNIT   1016 AT TIME STEP      4, STRESS PERIOD      3
 UBDSV4 SAVING WELLS NEAR RIVER ON UNIT   1016 AT TIME STEP      4, STRESS PERIOD      3

 WELLS NEAR RIVER   PERIOD  3   STEP  4
 BOUNDARY      1   LAYER   1   ROW     2   COL     3   RATE    -50.0000    
 BOUNDARY      2   LAYER   2   ROW     3   COL     4   RATE     0.00000      WELL_1
 BOUNDARY      3   LAYER   2   ROW     8   COL     4   RATE     0.00000      WELL_2
 UBDSV4 SAVING RIVER            ON UNIT   1016 AT TIME STEP      4, STRESS PERIOD      3

 RIVER              PERIOD  3   STEP  4
 BOUNDARY      1   LAYER   1   ROW     1   COL    15   RATE    -4863.27    
 BOUNDARY      2   LAYER   1   ROW     2   COL    15   RATE    -5968.37      RIV2
 BOUNDARY      3   LAYER   1   ROW     3   COL    15   RATE    -2179.32      RIV3
 BOUNDARY      4   LAYER   1   ROW     4   COL    15   RATE    -3635.14    
 BOUNDARY      5   LAYER   1   ROW     5   COL    15   RATE    -2281.01    
 BOUNDARY      6   LAYER   1   ROW     6   COL    15   RATE    -1638.99    
 BOUNDARY      7   LAYER   1   ROW     7   COL    15   RATE    -6132.93      RIVX
 BOUNDARY      8   LAYER   1   ROW     8   COL    15   RATE    -5961.57      RIVX
 BOUNDARY      9   LAYER   1   ROW     9   COL    15   RATE    -2134.57      RIVX
 BOUNDARY     10   LAYER   1   ROW    10   COL    15   RATE    -3020.83    

 GHB LAKES          PERIOD  3   STEP  4
 BOUNDARY      1   LAYER   1   ROW     3   COL     1   RATE    -14469.4    
 BOUNDARY      2   LAYER   1   ROW     7   COL     1   RATE    -1843.58      GHB2_UPPER
 BOUNDARY      3   LAYER   1   ROW     7   COL     1   RATE    -13236.0      GHB2_LOWER
 UBDSV4 SAVING RECHARGE         ON UNIT   1016 AT TIME STEP      4, STRESS PERIOD      3

 RECHARGE           PERIOD  3   STEP  4
 BOUNDARY      1   LAYER   1   ROW     1   COL     1   RATE     573.958    
 BOUNDARY      2   LAYER   1   ROW     1   COL     2   RATE     573.958    
 BOUNDARY      3   LAYER   1   ROW     1   COL     3   RATE     573.958    
 BOUNDARY      4   LAYER   1   ROW     1   COL     4   RATE     573.958    
 BOUNDARY      5   LAYER   1   ROW     1   COL     5   RATE     573.958    
 BOUNDARY      6   LAYER   1   ROW     1   COL     6   RATE     573.958    
 BOUNDARY      7   LAYER   1   ROW     1   COL     7   RATE     573.958    
 BOUNDARY      8   LAYER   1   ROW     1   COL     8   RATE     573.958    
 BOUNDARY      9   LAYER   1   ROW     1   COL     9   RATE     573.958    
 BOUNDARY     10   LAYER   1   ROW     1   COL    10   RATE     573.958    
 BOUNDARY     11   LAYER   1   ROW     1   COL    11   RATE     573.958    
 BOUNDARY     12   LAYER   1   ROW     1   COL    12   RATE     573.958    
 BOUNDARY     13   LAYER   1   ROW     1   COL    13   RATE     573.958    
 BOUNDARY     14   LAYER   1   ROW     1   COL    14   RATE     573.958    
 BOUNDARY     15   LAYER   1   ROW     1   COL    15   RATE     573.958    
 BOUNDARY     16   LAYER   1   ROW     2   COL     1   RATE     573.958    
 BOUNDARY     17   LAYER   1   ROW     2   COL     2   RATE     573.958    
 BOUNDARY     18   LAYER   1   ROW     2   COL     3   RATE     573.958    
 BOUNDARY     19   LAYER   1   ROW     2   COL     4   RATE     573.958    
 BOUNDARY     20   LAYER   1   ROW     2   COL     5   RATE     573.958    
 BOUNDARY     21   LAYER   1   ROW     2   COL     6   RATE     573.958    
 BOUNDARY     22   LAYER   1   ROW     2   COL     7   RATE     573.958    
 BOUNDARY     23   LAYER   1   ROW     2   COL     8   RATE     573.958    
 BOUNDARY     24   LAYER   1   ROW     2   COL     9   RATE     573.958    
 BOUNDARY     25   LAYER   1   ROW     2   COL    10   RATE     573.958    
 BOUNDARY     26   LAYER   1   ROW     2   COL    11   RATE     573.958    
 BOUNDARY     27   LAYER   1   ROW     2   COL    12   RATE     573.958    
 BOUNDARY     28   LAYER   1   ROW     2   COL    13   RATE     573.958    
 BOUNDARY     29   LAYER   1   ROW     2   COL    14   RATE     573.958    
 BOUNDARY     30   LAYER   1   ROW     2   COL    15   RATE     573.958    
 BOUNDARY     31   LAYER   1   ROW     3   COL     1   RATE     573.958    
 BOUNDARY     32   LAYER   1   ROW     3   COL     2   RATE     573.958    
 BOUNDARY     33   LAYER   1   ROW     3   COL     3   RATE     573.958    
 BOUNDARY     34   LAYER   1   ROW     3   COL     4   RATE     573.958    
 BOUNDARY     35   LAYER   1   ROW     3   COL     5   RATE     573.958    
 BOUNDARY     36   LAYER   1   ROW     3   COL     6   RATE     573.958    
 BOUNDARY     37   LAYER   1   ROW     3   COL     7   RATE     573.958    
 BOUNDARY     38   LAYER   1   ROW     3   COL     8   RATE     573.958    
 BOUNDARY     39   LAYER   1   ROW     3   COL     9   RATE     573.958    
 BOUNDARY     40   LAYER   1   ROW     3   COL    10   RATE     573.958    
 BOUNDARY     41   LAYER   1   ROW     3   COL    11   RATE     573.958    
 BOUNDARY     42   LAYER   1   ROW     3   COL    12   RATE     573.958    
 BOUNDARY     43   LAYER   1   ROW     3   COL    13   RATE     573.958    
 BOUNDARY     44   LAYER   1   ROW     3   COL    14   RATE     573.958    
 BOUNDARY     45   LAYER   1   ROW     3   COL    15   RATE     573.958    
 BOUNDARY     46   LAYER   1   ROW     4   COL     1   RATE     573.958    
 BOUNDARY     47   LAYER   1   ROW     4   COL     2   RATE     573.958    
 BOUNDARY     48   LAYER   1   ROW     4   COL     3   RATE     573.958    
 BOUNDARY     49   LAYER   1   ROW     4   COL     4   RATE     573.958    
 BOUNDARY     50   LAYER   1   ROW     4   COL     5   RATE     573.958    
 BOUNDARY     51   LAYER   1   ROW     4   COL     6   RATE     573.958    
 BOUNDARY     52   LAYER   1   ROW     4   COL     7   RATE     573.958    
 BOUNDARY     53   LAYER   1   ROW     4   COL     8   RATE     573.958    
 BOUNDARY     54   LAYER   1   ROW     4   COL     9   RATE     573.958    
 BOUNDARY     55   LAYER   1   ROW     4   COL    10   RATE     573.958    
 BOUNDARY     56   LAYER   1   ROW     4   COL    11   RATE     573.958    
 BOUNDARY     57   LAYER   1   ROW     4   COL    12   RATE     573.958    
 BOUNDARY     58   LAYER   1   ROW     4   COL    13   RATE     573.958    
 BOUNDARY     59   LAYER   1   ROW     4   COL    14   RATE     573.958    
 BOUNDARY     60   LAYER   1   ROW     4   COL    15   RATE     573.958    
 BOUNDARY     61   LAYER   1   ROW     5   COL     1   RATE     573.958    
 BOUNDARY     62   LAYER   1   ROW     5   COL     2   RATE     573.958    
 BOUNDARY     63   LAYER   1   ROW     5   COL     3   RATE     573.958    
 BOUNDARY     64   LAYER   1   ROW     5   COL     4   RATE     573.958    
 BOUNDARY     65   LAYER   1   ROW     5   COL     5   RATE     573.958    
 BOUNDARY     66   LAYER   1   ROW     5   COL     6   RATE     573.958    
 BOUNDARY     67   LAYER   1   ROW     5   COL     7   RATE     573.958    
 BOUNDARY     68   LAYER   1   ROW     5   COL     8   RATE     573.958    
 BOUNDARY     69   LAYER   1   ROW     5   COL     9   RATE     573.958    
 BOUNDARY     70   LAYER   1   ROW     5   COL    10   RATE     573.958    
 BOUNDARY     71   LAYER   1   ROW     5   COL    11   RATE     573.958    
 BOUNDARY     72   LAYER   1   ROW     5   COL    12   RATE     573.958    
 BOUNDARY     73   LAYER   1   ROW     5   COL    13   RATE     573.958    
 BOUNDARY     74   LAYER   1   ROW     5   COL    14   RATE     573.958    
 BOUNDARY     75   LAYER   1   ROW     5   COL    15   RATE     573.958    
 BOUNDARY     76   LAYER   1   ROW     6   COL     1   RATE     573.958    
 BOUNDARY     77   LAYER   1   ROW     6   COL     2   RATE     573.958    
 BOUNDARY     78   LAYER   1   ROW     6   COL     3   RATE     573.958    
 BOUNDARY     79   LAYER   1   ROW     6   COL     4   RATE     573.958    
 BOUNDARY     80   LAYER   1   ROW     6   COL     5   RATE     573.958    
 BOUNDARY     81   LAYER   1   ROW     6   COL     6   RATE     573.958    
 BOUNDARY     82   LAYER   1   ROW     6   COL     7   RATE     573.958    
 BOUNDARY     83   LAYER   1   ROW     6   COL     8   RATE     573.958    
 BOUNDARY     84   LAYER   1   ROW     6   COL     9   RATE     573.958    
 BOUNDARY     85   LAYER   1   ROW     6   COL    10   RATE     573.958    
 BOUNDARY     86   LAYER   1   ROW     6   COL    11   RATE     573.958    
 BOUNDARY     87   LAYER   1   ROW     6   COL    12   RATE     573.958    
 BOUNDARY     88   LAYER   1   ROW     6   COL    13   RATE     573.958    
 BOUNDARY     89   LAYER   1   ROW     6   COL    14   RATE     573.958    
 BOUNDARY     90   LAYER   1   ROW     6   COL    15   RATE     573.958    
 BOUNDARY     91   LAYER   1   ROW     7   COL     1   RATE     573.958    
 BOUNDARY     92   LAYER   1   ROW     7   COL     2   RATE     573.958    
 BOUNDARY     93   LAYER   1   ROW     7   COL     3   RATE     573.958    
 BOUNDARY     94   LAYER   1   ROW     7   COL     4   RATE     573.958    
 BOUNDARY     95   LAYER   1   ROW     7   COL     5   RATE     573.958    
 BOUNDARY     96   LAYER   1   ROW     7   COL     6   RATE     573.958    
 BOUNDARY     97   LAYER   1   ROW     7   COL     7   RATE     573.958    
 BOUNDARY     98   LAYER   1   ROW     7   COL     8   RATE     573.958    
 BOUNDARY     99   LAYER   1   ROW     7   COL     9   RATE     573.958    
 BOUNDARY    100   LAYER   1   ROW     7   COL    10   RATE     573.958    
 BOUNDARY    101   LAYER   1   ROW     7   COL    11   RATE     573.958    
 BOUNDARY    102   LAYER   1   ROW     7   COL    12   RATE     573.958    
 BOUNDARY    103   LAYER   1   ROW     7   COL    13   RATE     573.958    
 BOUNDARY    104   LAYER   1   ROW     7   COL    14   RATE     573.958    
 BOUNDARY    105   LAYER   1   ROW     7   COL    15   RATE     573.958    
 BOUNDARY    106   LAYER   1   ROW     8   COL     1   RATE     573.958    
 BOUNDARY    107   LAYER   1   ROW     8   COL     2   RATE     573.958    
 BOUNDARY    108   LAYER   1   ROW     8   COL     3   RATE     573.958    
 BOUNDARY    109   LAYER   1   ROW     8   COL     4   RATE     573.958    
 BOUNDARY    110   LAYER   1   ROW     8   COL     5   RATE     573.958    
 BOUNDARY    111   LAYER   1   ROW     8   COL     6   RATE     573.958    
 BOUNDARY    112   LAYER   1   ROW     8   COL     7   RATE     573.958    
 BOUNDARY    113   LAYER   1   ROW     8   COL     8   RATE     573.958    
 BOUNDARY    114   LAYER   1   ROW     8   COL     9   RATE     573.958    
 BOUNDARY    115   LAYER   1   ROW     8   COL    10   RATE     573.958    
 BOUNDARY    116   LAYER   1   ROW     8   COL    11   RATE     573.958    
 BOUNDARY    117   LAYER   1   ROW     8   COL    12   RATE     573.958    
 BOUNDARY    118   LAYER   1   ROW     8   COL    13   RATE     573.958    
 BOUNDARY    119   LAYER   1   ROW     8   COL    14   RATE     573.958    
 BOUNDARY    120   LAYER   1   ROW     8   COL    15   RATE     573.958    
 BOUNDARY    121   LAYER   1   ROW     9   COL     1   RATE     573.958    
 BOUNDARY    122   LAYER   1   ROW     9   COL     2   RATE     573.958    
 BOUNDARY    123   LAYER   1   ROW     9   COL     3   RATE     573.958    
 BOUNDARY    124   LAYER   1   ROW     9   COL     4   RATE     573.958    
 BOUNDARY    125   LAYER   1   ROW     9   COL     5   RATE     573.958    
 BOUNDARY    126   LAYER   1   ROW     9   COL     6   RATE     573.958    
 BOUNDARY    127   LAYER   1   ROW     9   COL     7   RATE     573.958    
 BOUNDARY    128   LAYER   1   ROW     9   COL     8   RATE     573.958    
 BOUNDARY    129   LAYER   1   ROW     9   COL     9   RATE     573.958    
 BOUNDARY    130   LAYER   1   ROW     9   COL    10   RATE     573.958    
 BOUNDARY    131   LAYER   1   ROW     9   COL    11   RATE     573.958    
 BOUNDARY    132   LAYER   1   ROW     9   COL    12   RATE     573.958    
 BOUNDARY    133   LAYER   1   ROW     9   COL    13   RATE     573.958    
 BOUNDARY    134   LAYER   1   ROW     9   COL    14   RATE     573.958    
 BOUNDARY    135   LAYER   1   ROW     9   COL    15   RATE     573.958    
 BOUNDARY    136   LAYER   1   ROW    10   COL     1   RATE     573.958    
 BOUNDARY    137   LAYER   1   ROW    10   COL     2   RATE     573.958    
 BOUNDARY    138   LAYER   1   ROW    10   COL     3   RATE     573.958    
 BOUNDARY    139   LAYER   1   ROW    10   COL     4   RATE     573.958    
 BOUNDARY    140   LAYER   1   ROW    10   COL     5   RATE     573.958    
 BOUNDARY    141   LAYER   1   ROW    10   COL     6   RATE     573.958    
 BOUNDARY    142   LAYER   1   ROW    10   COL     7   RATE     573.958    
 BOUNDARY    143   LAYER   1   ROW    10   COL     8   RATE     573.958    
 BOUNDARY    144   LAYER   1   ROW    10   COL     9   RATE     573.958    
 BOUNDARY    145   LAYER   1   ROW    10   COL    10   RATE     573.958    
 BOUNDARY    146   LAYER   1   ROW    10   COL    11   RATE     573.958    
 BOUNDARY    147   LAYER   1   ROW    10   COL    12   RATE     573.958    
 BOUNDARY    148   LAYER   1   ROW    10   COL    13   RATE     573.958    
 BOUNDARY    149   LAYER   1   ROW    10   COL    14   RATE     573.958    
 BOUNDARY    150   LAYER   1   ROW    10   COL    15   RATE     573.958    
 UBDSV4 SAVING ET SEGS          ON UNIT   1016 AT TIME STEP      4, STRESS PERIOD      3

 ET SEGS            PERIOD  3   STEP  4
 BOUNDARY      1   LAYER   1   ROW     1   COL     1   RATE    -1.78852    
 BOUNDARY      2   LAYER   1   ROW     1   COL     2   RATE    -7.44019    
 BOUNDARY      3   LAYER   1   ROW     1   COL     3   RATE    -41.1345    
 BOUNDARY      4   LAYER   1   ROW     1   COL     4   RATE    -82.3958    
 BOUNDARY      5   LAYER   1   ROW     1   COL     5   RATE    -82.3958    
 BOUNDARY      6   LAYER   1   ROW     1   COL     6   RATE    -82.3958    
 BOUNDARY      7   LAYER   1   ROW     1   COL     7   RATE    -82.3958    
 BOUNDARY      8   LAYER   1   ROW     1   COL     8   RATE    -82.3958    
 BOUNDARY      9   LAYER   1   ROW     1   COL     9   RATE    -82.3958    
 BOUNDARY     10   LAYER   1   ROW     1   COL    10   RATE    -82.3958    
 BOUNDARY     11   LAYER   1   ROW     1   COL    11   RATE    -82.3958    
 BOUNDARY     12   LAYER   1   ROW     1   COL    12   RATE    -13.9339    
 BOUNDARY     13   LAYER   1   ROW     1   COL    13   RATE     0.00000    
 BOUNDARY     14   LAYER   1   ROW     1   COL    14   RATE     0.00000    
 BOUNDARY     15   LAYER   1   ROW     1   COL    15   RATE     0.00000    
 BOUNDARY     16   LAYER   1   ROW     2   COL     1   RATE     0.00000    
 BOUNDARY     17   LAYER   1   ROW     2   COL     2   RATE    -3.71679    
 BOUNDARY     18   LAYER   1   ROW     2   COL     3   RATE    -23.3692    
 BOUNDARY     19   LAYER   1   ROW     2   COL     4   RATE    -82.3958    
 BOUNDARY     20   LAYER   1   ROW     2   COL     5   RATE    -82.3958    
 BOUNDARY     21   LAYER   1   ROW     2   COL     6   RATE    -82.3958    
 BOUNDARY     22   LAYER   1   ROW     2   COL     7   RATE    -82.3958    
 BOUNDARY     23   LAYER   1   ROW     2   COL     8   RATE    -82.3958    
 BOUNDARY     24   LAYER   1   ROW     2   COL     9   RATE    -82.3958    
 BOUNDARY     25   LAYER   1   ROW     2   COL    10   RATE    -82.3958    
 BOUNDARY     26   LAYER   1   ROW     2   COL    11   RATE    -82.3958    
 BOUNDARY     27   LAYER   1   ROW     2   COL    12   RATE    -15.3689    
 BOUNDARY     28   LAYER   1   ROW     2   COL    13   RATE   -0.107300    
 BOUNDARY     29   LAYER   1   ROW     2   COL    14   RATE     0.00000    
 BOUNDARY     30   LAYER   1   ROW     2   COL    15   RATE     0.00000    
 BOUNDARY     31   LAYER   1   ROW     3   COL     1   RATE     0.00000    
 BOUNDARY     32   LAYER   1   ROW     3   COL     2   RATE     0.00000    
 BOUNDARY     33   LAYER   1   ROW     3   COL     3   RATE    -18.4645    
 BOUNDARY     34   LAYER   1   ROW     3   COL     4   RATE    -82.3958    
 BOUNDARY     35   LAYER   1   ROW     3   COL     5   RATE    -82.3958    
 BOUNDARY     36   LAYER   1   ROW     3   COL     6   RATE    -82.3958    
 BOUNDARY     37   LAYER   1   ROW     3   COL     7   RATE    -82.3958    
 BOUNDARY     38   LAYER   1   ROW     3   COL     8   RATE    -82.3958    
 BOUNDARY     39   LAYER   1   ROW     3   COL     9   RATE    -82.3958    
 BOUNDARY     40   LAYER   1   ROW     3   COL    10   RATE    -82.3958    
 BOUNDARY     41   LAYER   1   ROW     3   COL    11   RATE    -82.3958    
 BOUNDARY     42   LAYER   1   ROW     3   COL    12   RATE    -17.7896    
 BOUNDARY     43   LAYER   1   ROW     3   COL    13   RATE    -1.58048    
 BOUNDARY     44   LAYER   1   ROW     3   COL    14   RATE     0.00000    
 BOUNDARY     45   LAYER   1   ROW     3   COL    15   RATE     0.00000    
 BOUNDARY     46   LAYER   1   ROW     4   COL     1   RATE     0.00000    
 BOUNDARY     47   LAYER   1   ROW     4   COL     2   RATE    -2.46884    
 BOUNDARY     48   LAYER   1   ROW     4   COL     3   RATE    -21.6535    
 BOUNDARY     49   LAYER   1   ROW     4   COL     4   RATE    -82.3958    
 BOUNDARY     50   LAYER   1   ROW     4   COL     5   RATE    -82.3958    
 BOUNDARY     51   LAYER   1   ROW     4   COL     6   RATE    -82.3958    
 BOUNDARY     52   LAYER   1   ROW     4   COL     7   RATE    -82.3958    
 BOUNDARY     53   LAYER   1   ROW     4   COL     8   RATE    -82.3958    
 BOUNDARY     54   LAYER   1   ROW     4   COL     9   RATE    -82.3958    
 BOUNDARY     55   LAYER   1   ROW     4   COL    10   RATE    -82.3958    
 BOUNDARY     56   LAYER   1   ROW     4   COL    11   RATE    -82.3958    
 BOUNDARY     57   LAYER   1   ROW     4   COL    12   RATE    -20.0997    
 BOUNDARY     58   LAYER   1   ROW     4   COL    13   RATE    -2.78602    
 BOUNDARY     59   LAYER   1   ROW     4   COL    14   RATE     0.00000    
 BOUNDARY     60   LAYER   1   ROW     4   COL    15   RATE     0.00000    
 BOUNDARY     61   LAYER   1   ROW     5   COL     1   RATE     0.00000    
 BOUNDARY     62   LAYER   1   ROW     5   COL     2   RATE    -4.92015    
 BOUNDARY     63   LAYER   1   ROW     5   COL     3   RATE    -25.8934    
 BOUNDARY     64   LAYER   1   ROW     5   COL     4   RATE    -82.3958    
 BOUNDARY     65   LAYER   1   ROW     5   COL     5   RATE    -82.3958    
 BOUNDARY     66   LAYER   1   ROW     5   COL     6   RATE    -82.3958    
 BOUNDARY     67   LAYER   1   ROW     5   COL     7   RATE    -82.3958    
 BOUNDARY     68   LAYER   1   ROW     5   COL     8   RATE    -82.3958    
 BOUNDARY     69   LAYER   1   ROW     5   COL     9   RATE    -82.3958    
 BOUNDARY     70   LAYER   1   ROW     5   COL    10   RATE    -82.3958    
 BOUNDARY     71   LAYER   1   ROW     5   COL    11   RATE    -82.3958    
 BOUNDARY     72   LAYER   1   ROW     5   COL    12   RATE    -21.6987    
 BOUNDARY     73   LAYER   1   ROW     5   COL    13   RATE    -3.53414    
 BOUNDARY     74   LAYER   1   ROW     5   COL    14   RATE     0.00000    
 BOUNDARY     75   LAYER   1   ROW     5   COL    15   RATE     0.00000    
 BOUNDARY     76   LAYER   1   ROW     6   COL     1   RATE     0.00000    
 BOUNDARY     77   LAYER   1   ROW     6   COL     2   RATE    -3.74230    
 BOUNDARY     78   LAYER   1   ROW     6   COL     3   RATE    -29.0998    
 BOUNDARY     79   LAYER   1   ROW     6   COL     4   RATE    -82.3958    
 BOUNDARY     80   LAYER   1   ROW     6   COL     5   RATE    -82.3958    
 BOUNDARY     81   LAYER   1   ROW     6   COL     6   RATE    -82.3958    
 BOUNDARY     82   LAYER   1   ROW     6   COL     7   RATE    -82.3958    
 BOUNDARY     83   LAYER   1   ROW     6   COL     8   RATE    -82.3958    
 BOUNDARY     84   LAYER   1   ROW     6   COL     9   RATE    -82.3958    
 BOUNDARY     85   LAYER   1   ROW     6   COL    10   RATE    -82.3958    
 BOUNDARY     86   LAYER   1   ROW     6   COL    11   RATE    -82.3958    
 BOUNDARY     87   LAYER   1   ROW     6   COL    12   RATE    -22.2346    
 BOUNDARY     88   LAYER   1   ROW     6   COL    13   RATE    -3.50021    
 BOUNDARY     89   LAYER   1   ROW     6   COL    14   RATE     0.00000    
 BOUNDARY     90   LAYER   1   ROW     6   COL    15   RATE     0.00000    
 BOUNDARY     91   LAYER   1   ROW     7   COL     1   RATE     0.00000    
 BOUNDARY     92   LAYER   1   ROW     7   COL     2   RATE   -0.860815    
 BOUNDARY     93   LAYER   1   ROW     7   COL     3   RATE    -34.8414    
 BOUNDARY     94   LAYER   1   ROW     7   COL     4   RATE    -82.3958    
 BOUNDARY     95   LAYER   1   ROW     7   COL     5   RATE    -82.3958    
 BOUNDARY     96   LAYER   1   ROW     7   COL     6   RATE    -82.3958    
 BOUNDARY     97   LAYER   1   ROW     7   COL     7   RATE    -82.3958    
 BOUNDARY     98   LAYER   1   ROW     7   COL     8   RATE    -82.3958    
 BOUNDARY     99   LAYER   1   ROW     7   COL     9   RATE    -82.3958    
 BOUNDARY    100   LAYER   1   ROW     7   COL    10   RATE    -82.3958    
 BOUNDARY    101   LAYER   1   ROW     7   COL    11   RATE    -82.3958    
 BOUNDARY    102   LAYER   1   ROW     7   COL    12   RATE    -22.1015    
 BOUNDARY    103   LAYER   1   ROW     7   COL    13   RATE    -2.89798    
 BOUNDARY    104   LAYER   1   ROW     7   COL    14   RATE     0.00000    
 BOUNDARY    105   LAYER   1   ROW     7   COL    15   RATE     0.00000    
 BOUNDARY    106   LAYER   1   ROW     8   COL     1   RATE     0.00000    
 BOUNDARY    107   LAYER   1   ROW     8   COL     2   RATE    -9.38224    
 BOUNDARY    108   LAYER   1   ROW     8   COL     3   RATE    -82.3958    
 BOUNDARY    109   LAYER   1   ROW     8   COL     4   RATE    -82.3958    
 BOUNDARY    110   LAYER   1   ROW     8   COL     5   RATE    -82.3958    
 BOUNDARY    111   LAYER   1   ROW     8   COL     6   RATE    -82.3958    
 BOUNDARY    112   LAYER   1   ROW     8   COL     7   RATE    -82.3958    
 BOUNDARY    113   LAYER   1   ROW     8   COL     8   RATE    -82.3958    
 BOUNDARY    114   LAYER   1   ROW     8   COL     9   RATE    -82.3958    
 BOUNDARY    115   LAYER   1   ROW     8   COL    10   RATE    -82.3958    
 BOUNDARY    116   LAYER   1   ROW     8   COL    11   RATE    -82.3958    
 BOUNDARY    117   LAYER   1   ROW     8   COL    12   RATE    -22.4217    
 BOUNDARY    118   LAYER   1   ROW     8   COL    13   RATE    -2.90159    
 BOUNDARY    119   LAYER   1   ROW     8   COL    14   RATE     0.00000    
 BOUNDARY    120   LAYER   1   ROW     8   COL    15   RATE     0.00000    
 BOUNDARY    121   LAYER   1   ROW     9   COL     1   RATE    -15.6331    
 BOUNDARY    122   LAYER   1   ROW     9   COL     2   RATE    -50.6554    
 BOUNDARY    123   LAYER   1   ROW     9   COL     3   RATE    -82.3958    
 BOUNDARY    124   LAYER   1   ROW     9   COL     4   RATE    -82.3958    
 BOUNDARY    125   LAYER   1   ROW     9   COL     5   RATE    -82.3958    
 BOUNDARY    126   LAYER   1   ROW     9   COL     6   RATE    -82.3958    
 BOUNDARY    127   LAYER   1   ROW     9   COL     7   RATE    -82.3958    
 BOUNDARY    128   LAYER   1   ROW     9   COL     8   RATE    -82.3958    
 BOUNDARY    129   LAYER   1   ROW     9   COL     9   RATE    -82.3958    
 BOUNDARY    130   LAYER   1   ROW     9   COL    10   RATE    -82.3958    
 BOUNDARY    131   LAYER   1   ROW     9   COL    11   RATE    -82.3958    
 BOUNDARY    132   LAYER   1   ROW     9   COL    12   RATE    -23.3277    
 BOUNDARY    133   LAYER   1   ROW     9   COL    13   RATE    -3.57977    
 BOUNDARY    134   LAYER   1   ROW     9   COL    14   RATE     0.00000    
 BOUNDARY    135   LAYER   1   ROW     9   COL    15   RATE     0.00000    
 BOUNDARY    136   LAYER   1   ROW    10   COL     1   RATE    -57.4608    
 BOUNDARY    137   LAYER   1   ROW    10   COL     2   RATE    -82.3958    
 BOUNDARY    138   LAYER   1   ROW    10   COL     3   RATE    -82.3958    
 BOUNDARY    139   LAYER   1   ROW    10   COL     4   RATE    -82.3958    
 BOUNDARY    140   LAYER   1   ROW    10   COL     5   RATE    -82.3958    
 BOUNDARY    141   LAYER   1   ROW    10   COL     6   RATE    -82.3958    
 BOUNDARY    142   LAYER   1   ROW    10   COL     7   RATE    -82.3958    
 BOUNDARY    143   LAYER   1   ROW    10   COL     8   RATE    -82.3958    
 BOUNDARY    144   LAYER   1   ROW    10   COL     9   RATE    -82.3958    
 BOUNDARY    145   LAYER   1   ROW    10   COL    10   RATE    -82.3958    
 BOUNDARY    146   LAYER   1   ROW    10   COL    11   RATE    -82.3958    
 BOUNDARY    147   LAYER   1   ROW    10   COL    12   RATE    -23.9839    
 BOUNDARY    148   LAYER   1   ROW    10   COL    13   RATE    -4.01511    
 BOUNDARY    149   LAYER   1   ROW    10   COL    14   RATE     0.00000    
 BOUNDARY    150   LAYER   1   ROW    10   COL    15   RATE     0.00000    

 HEAD WILL BE SAVED ON UNIT 1017 AT END OF TIME STEP    4, STRESS PERIOD    3
WEL   no.    2 value from time series:   0.0000     for time:  36.00     to  37.00    
WEL   no.    3 value from time series:   0.0000     for time:  36.00     to  37.00    
RIV   no.    1 value from time series:   101.00     for time:  36.00     to  37.00    
RIV   no.    2 value from time series:   101.00     for time:  36.00     to  37.00    
RIV   no.    3 value from time series:   111.50     for time:  36.00     to  37.00    
RIV   no.    4 value from time series:   111.50     for time:  36.00     to  37.00    
RIV   no.    5 value from time series:   115.10     for time:  36.00     to  37.00    
RIV   no.    6 value from time series:   115.10     for time:  36.00     to  37.00    
RIV   no.    7 value from time series:   104.00     for time:  36.00     to  37.00    
RIV   no.    8 value from time series:   104.00     for time:  36.00     to  37.00    
RIV   no.    9 value from time series:   113.50     for time:  36.00     to  37.00    
RIV   no.   10 value from time series:   113.50     for time:  36.00     to  37.00    
WEL   no.    2 value from time series:   0.0000     for time:  36.00     to  37.00    
WEL   no.    3 value from time series:   0.0000     for time:  36.00     to  37.00    
RIV   no.    1 value from time series:   101.00     for time:  36.00     to  37.00    
RIV   no.    2 value from time series:   101.00     for time:  36.00     to  37.00    
RIV   no.    3 value from time series:   111.50     for time:  36.00     to  37.00    
RIV   no.    4 value from time series:   111.50     for time:  36.00     to  37.00    
RIV   no.    5 value from time series:   115.10     for time:  36.00     to  37.00    
RIV   no.    6 value from time series:   115.10     for time:  36.00     to  37.00    
RIV   no.    7 value from time series:   104.00     for time:  36.00     to  37.00    
RIV   no.    8 value from time series:   104.00     for time:  36.00     to  37.00    
RIV   no.    9 value from time series:   113.50     for time:  36.00     to  37.00    
RIV   no.   10 value from time series:   113.50     for time:  36.00     to  37.00    

 OUTPUT CONTROL FOR STRESS PERIOD    3   TIME STEP    5
    SAVE BUDGET
    SAVE HEAD
    SAVE HEAD FOR ALL LAYERS
 UBDSV1 SAVING          STORAGE ON UNIT   1016 AT TIME STEP      5, STRESS PERIOD      3
 UBDSV1 SAVING FLOW RIGHT FACE  ON UNIT   1016 AT TIME STEP      5, STRESS PERIOD      3
 UBDSV1 SAVING FLOW FRONT FACE  ON UNIT   1016 AT TIME STEP      5, STRESS PERIOD      3
 UBDSV1 SAVING FLOW LOWER FACE  ON UNIT   1016 AT TIME STEP      5, STRESS PERIOD      3
 UBDSV4 SAVING WELLS NEAR RIVER ON UNIT   1016 AT TIME STEP      5, STRESS PERIOD      3

 WELLS NEAR RIVER   PERIOD  3   STEP  5
 BOUNDARY      1   LAYER   1   ROW     2   COL     3   RATE    -50.0000    
 BOUNDARY      2   LAYER   2   ROW     3   COL     4   RATE     0.00000      WELL_1
 BOUNDARY      3   LAYER   2   ROW     8   COL     4   RATE     0.00000      WELL_2
 UBDSV4 SAVING RIVER            ON UNIT   1016 AT TIME STEP      5, STRESS PERIOD      3

 RIVER              PERIOD  3   STEP  5
 BOUNDARY      1   LAYER   1   ROW     1   COL    15   RATE    -4857.83    
 BOUNDARY      2   LAYER   1   ROW     2   COL    15   RATE    -5963.59      RIV2
 BOUNDARY      3   LAYER   1   ROW     3   COL    15   RATE    -2177.83      RIV3
 BOUNDARY      4   LAYER   1   ROW     4   COL    15   RATE    -3633.80    
 BOUNDARY      5   LAYER   1   ROW     5   COL    15   RATE    -2279.42    
 BOUNDARY      6   LAYER   1   ROW     6   COL    15   RATE    -1636.98    
 BOUNDARY      7   LAYER   1   ROW     7   COL    15   RATE    -6129.87      RIVX
 BOUNDARY      8   LAYER   1   ROW     8   COL    15   RATE    -5959.33      RIVX
 BOUNDARY      9   LAYER   1   ROW     9   COL    15   RATE    -2134.20      RIVX
 BOUNDARY     10   LAYER   1   ROW    10   COL    15   RATE    -3021.18    

 GHB LAKES          PERIOD  3   STEP  5
 BOUNDARY      1   LAYER   1   ROW     3   COL     1   RATE    -14471.5    
 BOUNDARY      2   LAYER   1   ROW     7   COL     1   RATE    -1844.67      GHB2_UPPER
 BOUNDARY      3   LAYER   1   ROW     7   COL     1   RATE    -13236.3      GHB2_LOWER
 UBDSV4 SAVING RECHARGE         ON UNIT   1016 AT TIME STEP      5, STRESS PERIOD      3

 RECHARGE           PERIOD  3   STEP  5
 BOUNDARY      1   LAYER   1   ROW     1   COL     1   RATE     576.042    
 BOUNDARY      2   LAYER   1   ROW     1   COL     2   RATE     576.042    
 BOUNDARY      3   LAYER   1   ROW     1   COL     3   RATE     576.042    
 BOUNDARY      4   LAYER   1   ROW     1   COL     4   RATE     576.042    
 BOUNDARY      5   LAYER   1   ROW     1   COL     5   RATE     576.042    
 BOUNDARY      6   LAYER   1   ROW     1   COL     6   RATE     576.042    
 BOUNDARY      7   LAYER   1   ROW     1   COL     7   RATE     576.042    
 BOUNDARY      8   LAYER   1   ROW     1   COL     8   RATE     576.042    
 BOUNDARY      9   LAYER   1   ROW     1   COL     9   RATE     576.042    
 BOUNDARY     10   LAYER   1   ROW     1   COL    10   RATE     576.042    
 BOUNDARY     11   LAYER   1   ROW     1   COL    11   RATE     576.042    
 BOUNDARY     12   LAYER   1   ROW     1   COL    12   RATE     576.042    
 BOUNDARY     13   LAYER   1   ROW     1   COL    13   RATE     576.042    
 BOUNDARY     14   LAYER   1   ROW     1   COL    14   RATE     576.042    
 BOUNDARY     15   LAYER   1   ROW     1   COL    15   RATE     576.042    
 BOUNDARY     16   LAYER   1   ROW     2   COL     1   RATE     576.042    
 BOUNDARY     17   LAYER   1   ROW     2   COL     2   RATE     576.042    
 BOUNDARY     18   LAYER   1   ROW     2   COL     3   RATE     576.042    
 BOUNDARY     19   LAYER   1   ROW     2   COL     4   RATE     576.042    
 BOUNDARY     20   LAYER   1   ROW     2   COL     5   RATE     576.042    
 BOUNDARY     21   LAYER   1   ROW     2   COL     6   RATE     576.042    
 BOUNDARY     22   LAYER   1   ROW     2   COL     7   RATE     576.042    
 BOUNDARY     23   LAYER   1   ROW     2   COL     8   RATE     576.042    
 BOUNDARY     24   LAYER   1   ROW     2   COL     9   RATE     576.042    
 BOUNDARY     25   LAYER   1   ROW     2   COL    10   RATE     576.042    
 BOUNDARY     26   LAYER   1   ROW     2   COL    11   RATE     576.042    
 BOUNDARY     27   LAYER   1   ROW     2   COL    12   RATE     576.042    
 BOUNDARY     28   LAYER   1   ROW     2   COL    13   RATE     576.042    
 BOUNDARY     29   LAYER   1   ROW     2   COL    14   RATE     576.042    
 BOUNDARY     30   LAYER   1   ROW     2   COL    15   RATE     576.042    
 BOUNDARY     31   LAYER   1   ROW     3   COL     1   RATE     576.042    
 BOUNDARY     32   LAYER   1   ROW     3   COL     2   RATE     576.042    
 BOUNDARY     33   LAYER   1   ROW     3   COL     3   RATE     576.042    
 BOUNDARY     34   LAYER   1   ROW     3   COL     4   RATE     576.042    
 BOUNDARY     35   LAYER   1   ROW     3   COL     5   RATE     576.042    
 BOUNDARY     36   LAYER   1   ROW     3   COL     6   RATE     576.042    
 BOUNDARY     37   LAYER   1   ROW     3   COL     7   RATE     576.042    
 BOUNDARY     38   LAYER   1   ROW     3   COL     8   RATE     576.042    
 BOUNDARY     39   LAYER   1   ROW     3   COL     9   RATE     576.042    
 BOUNDARY     40   LAYER   1   ROW     3   COL    10   RATE     576.042    
 BOUNDARY     41   LAYER   1   ROW     3   COL    11   RATE     576.042    
 BOUNDARY     42   LAYER   1   ROW     3   COL    12   RATE     576.042    
 BOUNDARY     43   LAYER   1   ROW     3   COL    13   RATE     576.042    
 BOUNDARY     44   LAYER   1   ROW     3   COL    14   RATE     576.042    
 BOUNDARY     45   LAYER   1   ROW     3   COL    15   RATE     576.042    
 BOUNDARY     46   LAYER   1   ROW     4   COL     1   RATE     576.042    
 BOUNDARY     47   LAYER   1   ROW     4   COL     2   RATE     576.042    
 BOUNDARY     48   LAYER   1   ROW     4   COL     3   RATE     576.042    
 BOUNDARY     49   LAYER   1   ROW     4   COL     4   RATE     576.042    
 BOUNDARY     50   LAYER   1   ROW     4   COL     5   RATE     576.042    
 BOUNDARY     51   LAYER   1   ROW     4   COL     6   RATE     576.042    
 BOUNDARY     52   LAYER   1   ROW     4   COL     7   RATE     576.042    
 BOUNDARY     53   LAYER   1   ROW     4   COL     8   RATE     576.042    
 BOUNDARY     54   LAYER   1   ROW     4   COL     9   RATE     576.042    
 BOUNDARY     55   LAYER   1   ROW     4   COL    10   RATE     576.042    
 BOUNDARY     56   LAYER   1   ROW     4   COL    11   RATE     576.042    
 BOUNDARY     57   LAYER   1   ROW     4   COL    12   RATE     576.042    
 BOUNDARY     58   LAYER   1   ROW     4   COL    13   RATE     576.042    
 BOUNDARY     59   LAYER   1   ROW     4   COL    14   RATE     576.042    
 BOUNDARY     60   LAYER   1   ROW     4   COL    15   RATE     576.042    
 BOUNDARY     61   LAYER   1   ROW     5   COL     1   RATE     576.042    
 BOUNDARY     62   LAYER   1   ROW     5   COL     2   RATE     576.042    
 BOUNDARY     63   LAYER   1   ROW     5   COL     3   RATE     576.042    
 BOUNDARY     64   LAYER   1   ROW     5   COL     4   RATE     576.042    
 BOUNDARY     65   LAYER   1   ROW     5   COL     5   RATE     576.042    
 BOUNDARY     66   LAYER   1   ROW     5   COL     6   RATE     576.042    
 BOUNDARY     67   LAYER   1   ROW     5   COL     7   RATE     576.042    
 BOUNDARY     68   LAYER   1   ROW     5   COL     8   RATE     576.042    
 BOUNDARY     69   LAYER   1   ROW     5   COL     9   RATE     576.042    
 BOUNDARY     70   LAYER   1   ROW     5   COL    10   RATE     576.042    
 BOUNDARY     71   LAYER   1   ROW     5   COL    11   RATE     576.042    
 BOUNDARY     72   LAYER   1   ROW     5   COL    12   RATE     576.042    
 BOUNDARY     73   LAYER   1   ROW     5   COL    13   RATE     576.042    
 BOUNDARY     74   LAYER   1   ROW     5   COL    14   RATE     576.042    
 BOUNDARY     75   LAYER   1   ROW     5   COL    15   RATE     576.042    
 BOUNDARY     76   LAYER   1   ROW     6   COL     1   RATE     576.042    
 BOUNDARY     77   LAYER   1   ROW     6   COL     2   RATE     576.042    
 BOUNDARY     78   LAYER   1   ROW     6   COL     3   RATE     576.042    
 BOUNDARY     79   LAYER   1   ROW     6   COL     4   RATE     576.042    
 BOUNDARY     80   LAYER   1   ROW     6   COL     5   RATE     576.042    
 BOUNDARY     81   LAYER   1   ROW     6   COL     6   RATE     576.042    
 BOUNDARY     82   LAYER   1   ROW     6   COL     7   RATE     576.042    
 BOUNDARY     83   LAYER   1   ROW     6   COL     8   RATE     576.042    
 BOUNDARY     84   LAYER   1   ROW     6   COL     9   RATE     576.042    
 BOUNDARY     85   LAYER   1   ROW     6   COL    10   RATE     576.042    
 BOUNDARY     86   LAYER   1   ROW     6   COL    11   RATE     576.042    
 BOUNDARY     87   LAYER   1   ROW     6   COL    12   RATE     576.042    
 BOUNDARY     88   LAYER   1   ROW     6   COL    13   RATE     576.042    
 BOUNDARY     89   LAYER   1   ROW     6   COL    14   RATE     576.042    
 BOUNDARY     90   LAYER   1   ROW     6   COL    15   RATE     576.042    
 BOUNDARY     91   LAYER   1   ROW     7   COL     1   RATE     576.042    
 BOUNDARY     92   LAYER   1   ROW     7   COL     2   RATE     576.042    
 BOUNDARY     93   LAYER   1   ROW     7   COL     3   RATE     576.042    
 BOUNDARY     94   LAYER   1   ROW     7   COL     4   RATE     576.042    
 BOUNDARY     95   LAYER   1   ROW     7   COL     5   RATE     576.042    
 BOUNDARY     96   LAYER   1   ROW     7   COL     6   RATE     576.042    
 BOUNDARY     97   LAYER   1   ROW     7   COL     7   RATE     576.042    
 BOUNDARY     98   LAYER   1   ROW     7   COL     8   RATE     576.042    
 BOUNDARY     99   LAYER   1   ROW     7   COL     9   RATE     576.042    
 BOUNDARY    100   LAYER   1   ROW     7   COL    10   RATE     576.042    
 BOUNDARY    101   LAYER   1   ROW     7   COL    11   RATE     576.042    
 BOUNDARY    102   LAYER   1   ROW     7   COL    12   RATE     576.042    
 BOUNDARY    103   LAYER   1   ROW     7   COL    13   RATE     576.042    
 BOUNDARY    104   LAYER   1   ROW     7   COL    14   RATE     576.042    
 BOUNDARY    105   LAYER   1   ROW     7   COL    15   RATE     576.042    
 BOUNDARY    106   LAYER   1   ROW     8   COL     1   RATE     576.042    
 BOUNDARY    107   LAYER   1   ROW     8   COL     2   RATE     576.042    
 BOUNDARY    108   LAYER   1   ROW     8   COL     3   RATE     576.042    
 BOUNDARY    109   LAYER   1   ROW     8   COL     4   RATE     576.042    
 BOUNDARY    110   LAYER   1   ROW     8   COL     5   RATE     576.042    
 BOUNDARY    111   LAYER   1   ROW     8   COL     6   RATE     576.042    
 BOUNDARY    112   LAYER   1   ROW     8   COL     7   RATE     576.042    
 BOUNDARY    113   LAYER   1   ROW     8   COL     8   RATE     576.042    
 BOUNDARY    114   LAYER   1   ROW     8   COL     9   RATE     576.042    
 BOUNDARY    115   LAYER   1   ROW     8   COL    10   RATE     576.042    
 BOUNDARY    116   LAYER   1   ROW     8   COL    11   RATE     576.042    
 BOUNDARY    117   LAYER   1   ROW     8   COL    12   RATE     576.042    
 BOUNDARY    118   LAYER   1   ROW     8   COL    13   RATE     576.042    
 BOUNDARY    119   LAYER   1   ROW     8   COL    14   RATE     576.042    
 BOUNDARY    120   LAYER   1   ROW     8   COL    15   RATE     576.042    
 BOUNDARY    121   LAYER   1   ROW     9   COL     1   RATE     576.042    
 BOUNDARY    122   LAYER   1   ROW     9   COL     2   RATE     576.042    
 BOUNDARY    123   LAYER   1   ROW     9   COL     3   RATE     576.042    
 BOUNDARY    124   LAYER   1   ROW     9   COL     4   RATE     576.042    
 BOUNDARY    125   LAYER   1   ROW     9   COL     5   RATE     576.042    
 BOUNDARY    126   LAYER   1   ROW     9   COL     6   RATE     576.042    
 BOUNDARY    127   LAYER   1   ROW     9   COL     7   RATE     576.042    
 BOUNDARY    128   LAYER   1   ROW     9   COL     8   RATE     576.042    
 BOUNDARY    129   LAYER   1   ROW     9   COL     9   RATE     576.042    
 BOUNDARY    130   LAYER   1   ROW     9   COL    10   RATE     576.042    
 BOUNDARY    131   LAYER   1   ROW     9   COL    11   RATE     576.042    
 BOUNDARY    132   LAYER   1   ROW     9   COL    12   RATE     576.042    
 BOUNDARY    133   LAYER   1   ROW     9   COL    13   RATE     576.042    
 BOUNDARY    134   LAYER   1   ROW     9   COL    14   RATE     576.042    
 BOUNDARY    135   LAYER   1   ROW     9   COL    15   RATE     576.042    
 BOUNDARY    136   LAYER   1   ROW    10   COL     1   RATE     576.042    
 BOUNDARY    137   LAYER   1   ROW    10   COL     2   RATE     576.042    
 BOUNDARY    138   LAYER   1   ROW    10   COL     3   RATE     576.042    
 BOUNDARY    139   LAYER   1   ROW    10   COL     4   RATE     576.042    
 BOUNDARY    140   LAYER   1   ROW    10   COL     5   RATE     576.042    
 BOUNDARY    141   LAYER   1   ROW    10   COL     6   RATE     576.042    
 BOUNDARY    142   LAYER   1   ROW    10   COL     7   RATE     576.042    
 BOUNDARY    143   LAYER   1   ROW    10   COL     8   RATE     576.042    
 BOUNDARY    144   LAYER   1   ROW    10   COL     9   RATE     576.042    
 BOUNDARY    145   LAYER   1   ROW    10   COL    10   RATE     576.042    
 BOUNDARY    146   LAYER   1   ROW    10   COL    11   RATE     576.042    
 BOUNDARY    147   LAYER   1   ROW    10   COL    12   RATE     576.042    
 BOUNDARY    148   LAYER   1   ROW    10   COL    13   RATE     576.042    
 BOUNDARY    149   LAYER   1   ROW    10   COL    14   RATE     576.042    
 BOUNDARY    150   LAYER   1   ROW    10   COL    15   RATE     576.042    
 UBDSV4 SAVING ET SEGS          ON UNIT   1016 AT TIME STEP      5, STRESS PERIOD      3

 ET SEGS            PERIOD  3   STEP  5
 BOUNDARY      1   LAYER   1   ROW     1   COL     1   RATE    -1.79798    
 BOUNDARY      2   LAYER   1   ROW     1   COL     2   RATE    -7.46410    
 BOUNDARY      3   LAYER   1   ROW     1   COL     3   RATE    -41.3295    
 BOUNDARY      4   LAYER   1   ROW     1   COL     4   RATE    -82.6042    
 BOUNDARY      5   LAYER   1   ROW     1   COL     5   RATE    -82.6042    
 BOUNDARY      6   LAYER   1   ROW     1   COL     6   RATE    -82.6042    
 BOUNDARY      7   LAYER   1   ROW     1   COL     7   RATE    -82.6042    
 BOUNDARY      8   LAYER   1   ROW     1   COL     8   RATE    -82.6042    
 BOUNDARY      9   LAYER   1   ROW     1   COL     9   RATE    -82.6042    
 BOUNDARY     10   LAYER   1   ROW     1   COL    10   RATE    -82.6042    
 BOUNDARY     11   LAYER   1   ROW     1   COL    11   RATE    -82.6042    
 BOUNDARY     12   LAYER   1   ROW     1   COL    12   RATE    -13.9876    
 BOUNDARY     13   LAYER   1   ROW     1   COL    13   RATE     0.00000    
 BOUNDARY     14   LAYER   1   ROW     1   COL    14   RATE     0.00000    
 BOUNDARY     15   LAYER   1   ROW     1   COL    15   RATE     0.00000    
 BOUNDARY     16   LAYER   1   ROW     2   COL     1   RATE     0.00000    
 BOUNDARY     17   LAYER   1   ROW     2   COL     2   RATE    -3.73105    
 BOUNDARY     18   LAYER   1   ROW     2   COL     3   RATE    -23.4377    
 BOUNDARY     19   LAYER   1   ROW     2   COL     4   RATE    -82.6042    
 BOUNDARY     20   LAYER   1   ROW     2   COL     5   RATE    -82.6042    
 BOUNDARY     21   LAYER   1   ROW     2   COL     6   RATE    -82.6042    
 BOUNDARY     22   LAYER   1   ROW     2   COL     7   RATE    -82.6042    
 BOUNDARY     23   LAYER   1   ROW     2   COL     8   RATE    -82.6042    
 BOUNDARY     24   LAYER   1   ROW     2   COL     9   RATE    -82.6042    
 BOUNDARY     25   LAYER   1   ROW     2   COL    10   RATE    -82.6042    
 BOUNDARY     26   LAYER   1   ROW     2   COL    11   RATE    -82.6042    
 BOUNDARY     27   LAYER   1   ROW     2   COL    12   RATE    -15.4263    
 BOUNDARY     28   LAYER   1   ROW     2   COL    13   RATE   -0.113354    
 BOUNDARY     29   LAYER   1   ROW     2   COL    14   RATE     0.00000    
 BOUNDARY     30   LAYER   1   ROW     2   COL    15   RATE     0.00000    
 BOUNDARY     31   LAYER   1   ROW     3   COL     1   RATE     0.00000    
 BOUNDARY     32   LAYER   1   ROW     3   COL     2   RATE     0.00000    
 BOUNDARY     33   LAYER   1   ROW     3   COL     3   RATE    -18.5285    
 BOUNDARY     34   LAYER   1   ROW     3   COL     4   RATE    -82.6042    
 BOUNDARY     35   LAYER   1   ROW     3   COL     5   RATE    -82.6042    
 BOUNDARY     36   LAYER   1   ROW     3   COL     6   RATE    -82.6042    
 BOUNDARY     37   LAYER   1   ROW     3   COL     7   RATE    -82.6042    
 BOUNDARY     38   LAYER   1   ROW     3   COL     8   RATE    -82.6042    
 BOUNDARY     39   LAYER   1   ROW     3   COL     9   RATE    -82.6042    
 BOUNDARY     40   LAYER   1   ROW     3   COL    10   RATE    -82.6042    
 BOUNDARY     41   LAYER   1   ROW     3   COL    11   RATE    -82.6042    
 BOUNDARY     42   LAYER   1   ROW     3   COL    12   RATE    -17.8531    
 BOUNDARY     43   LAYER   1   ROW     3   COL    13   RATE    -1.59036    
 BOUNDARY     44   LAYER   1   ROW     3   COL    14   RATE     0.00000    
 BOUNDARY     45   LAYER   1   ROW     3   COL    15   RATE     0.00000    
 BOUNDARY     46   LAYER   1   ROW     4   COL     1   RATE     0.00000    
 BOUNDARY     47   LAYER   1   ROW     4   COL     2   RATE    -2.48008    
 BOUNDARY     48   LAYER   1   ROW     4   COL     3   RATE    -21.7262    
 BOUNDARY     49   LAYER   1   ROW     4   COL     4   RATE    -82.6042    
 BOUNDARY     50   LAYER   1   ROW     4   COL     5   RATE    -82.6042    
 BOUNDARY     51   LAYER   1   ROW     4   COL     6   RATE    -82.6042    
 BOUNDARY     52   LAYER   1   ROW     4   COL     7   RATE    -82.6042    
 BOUNDARY     53   LAYER   1   ROW     4   COL     8   RATE    -82.6042    
 BOUNDARY     54   LAYER   1   ROW     4   COL     9   RATE    -82.6042    
 BOUNDARY     55   LAYER   1   ROW     4   COL    10   RATE    -82.6042    
 BOUNDARY     56   LAYER   1   ROW     4   COL    11   RATE    -82.6042    
 BOUNDARY     57   LAYER   1   ROW     4   COL    12   RATE    -20.1690    
 BOUNDARY     58   LAYER   1   ROW     4   COL    13   RATE    -2.79878    
 BOUNDARY     59   LAYER   1   ROW     4   COL    14   RATE     0.00000    
 BOUNDARY     60   LAYER   1   ROW     4   COL    15   RATE     0.00000    
 BOUNDARY     61   LAYER   1   ROW     5   COL     1   RATE     0.00000    
 BOUNDARY     62   LAYER   1   ROW     5   COL     2   RATE    -4.93764    
 BOUNDARY     63   LAYER   1   ROW     5   COL     3   RATE    -26.0523    
 BOUNDARY     64   LAYER   1   ROW     5   COL     4   RATE    -82.6042    
 BOUNDARY     65   LAYER   1   ROW     5   COL     5   RATE    -82.6042    
 BOUNDARY     66   LAYER   1   ROW     5   COL     6   RATE    -82.6042    
 BOUNDARY     67   LAYER   1   ROW     5   COL     7   RATE    -82.6042    
 BOUNDARY     68   LAYER   1   ROW     5   COL     8   RATE    -82.6042    
 BOUNDARY     69   LAYER   1   ROW     5   COL     9   RATE    -82.6042    
 BOUNDARY     70   LAYER   1   ROW     5   COL    10   RATE    -82.6042    
 BOUNDARY     71   LAYER   1   ROW     5   COL    11   RATE    -82.6042    
 BOUNDARY     72   LAYER   1   ROW     5   COL    12   RATE    -21.7718    
 BOUNDARY     73   LAYER   1   ROW     5   COL    13   RATE    -3.54833    
 BOUNDARY     74   LAYER   1   ROW     5   COL    14   RATE     0.00000    
 BOUNDARY     75   LAYER   1   ROW     5   COL    15   RATE     0.00000    
 BOUNDARY     76   LAYER   1   ROW     6   COL     1   RATE     0.00000    
 BOUNDARY     77   LAYER   1   ROW     6   COL     2   RATE    -3.75675    
 BOUNDARY     78   LAYER   1   ROW     6   COL     3   RATE    -29.2670    
 BOUNDARY     79   LAYER   1   ROW     6   COL     4   RATE    -82.6042    
 BOUNDARY     80   LAYER   1   ROW     6   COL     5   RATE    -82.6042    
 BOUNDARY     81   LAYER   1   ROW     6   COL     6   RATE    -82.6042    
 BOUNDARY     82   LAYER   1   ROW     6   COL     7   RATE    -82.6042    
 BOUNDARY     83   LAYER   1   ROW     6   COL     8   RATE    -82.6042    
 BOUNDARY     84   LAYER   1   ROW     6   COL     9   RATE    -82.6042    
 BOUNDARY     85   LAYER   1   ROW     6   COL    10   RATE    -82.6042    
 BOUNDARY     86   LAYER   1   ROW     6   COL    11   RATE    -82.6042    
 BOUNDARY     87   LAYER   1   ROW     6   COL    12   RATE    -22.3090    
 BOUNDARY     88   LAYER   1   ROW     6   COL    13   RATE    -3.51423    
 BOUNDARY     89   LAYER   1   ROW     6   COL    14   RATE     0.00000    
 BOUNDARY     90   LAYER   1   ROW     6   COL    15   RATE     0.00000    
 BOUNDARY     91   LAYER   1   ROW     7   COL     1   RATE     0.00000    
 BOUNDARY     92   LAYER   1   ROW     7   COL     2   RATE   -0.867763    
 BOUNDARY     93   LAYER   1   ROW     7   COL     3   RATE    -35.0242    
 BOUNDARY     94   LAYER   1   ROW     7   COL     4   RATE    -82.6042    
 BOUNDARY     95   LAYER   1   ROW     7   COL     5   RATE    -82.6042    
 BOUNDARY     96   LAYER   1   ROW     7   COL     6   RATE    -82.6042    
 BOUNDARY     97   LAYER   1   ROW     7   COL     7   RATE    -82.6042    
 BOUNDARY     98   LAYER   1   ROW     7   COL     8   RATE    -82.6042    
 BOUNDARY     99   LAYER   1   ROW     7   COL     9   RATE    -82.6042    
 BOUNDARY    100   LAYER   1   ROW     7   COL    10   RATE    -82.6042    
 BOUNDARY    101   LAYER   1   ROW     7   COL    11   RATE    -82.6042    
 BOUNDARY    102   LAYER   1   ROW     7   COL    12   RATE    -22.1758    
 BOUNDARY    103   LAYER   1   ROW     7   COL    13   RATE    -2.91071    
 BOUNDARY    104   LAYER   1   ROW     7   COL    14   RATE     0.00000    
 BOUNDARY    105   LAYER   1   ROW     7   COL    15   RATE     0.00000    
 BOUNDARY    106   LAYER   1   ROW     8   COL     1   RATE     0.00000    
 BOUNDARY    107   LAYER   1   ROW     8   COL     2   RATE    -9.42344    
 BOUNDARY    108   LAYER   1   ROW     8   COL     3   RATE    -82.6042    
 BOUNDARY    109   LAYER   1   ROW     8   COL     4   RATE    -82.6042    
 BOUNDARY    110   LAYER   1   ROW     8   COL     5   RATE    -82.6042    
 BOUNDARY    111   LAYER   1   ROW     8   COL     6   RATE    -82.6042    
 BOUNDARY    112   LAYER   1   ROW     8   COL     7   RATE    -82.6042    
 BOUNDARY    113   LAYER   1   ROW     8   COL     8   RATE    -82.6042    
 BOUNDARY    114   LAYER   1   ROW     8   COL     9   RATE    -82.6042    
 BOUNDARY    115   LAYER   1   ROW     8   COL    10   RATE    -82.6042    
 BOUNDARY    116   LAYER   1   ROW     8   COL    11   RATE    -82.6042    
 BOUNDARY    117   LAYER   1   ROW     8   COL    12   RATE    -22.4970    
 BOUNDARY    118   LAYER   1   ROW     8   COL    13   RATE    -2.91466    
 BOUNDARY    119   LAYER   1   ROW     8   COL    14   RATE     0.00000    
 BOUNDARY    120   LAYER   1   ROW     8   COL    15   RATE     0.00000    
 BOUNDARY    121   LAYER   1   ROW     9   COL     1   RATE    -15.6902    
 BOUNDARY    122   LAYER   1   ROW     9   COL     2   RATE    -50.8797    
 BOUNDARY    123   LAYER   1   ROW     9   COL     3   RATE    -82.6042    
 BOUNDARY    124   LAYER   1   ROW     9   COL     4   RATE    -82.6042    
 BOUNDARY    125   LAYER   1   ROW     9   COL     5   RATE    -82.6042    
 BOUNDARY    126   LAYER   1   ROW     9   COL     6   RATE    -82.6042    
 BOUNDARY    127   LAYER   1   ROW     9   COL     7   RATE    -82.6042    
 BOUNDARY    128   LAYER   1   ROW     9   COL     8   RATE    -82.6042    
 BOUNDARY    129   LAYER   1   ROW     9   COL     9   RATE    -82.6042    
 BOUNDARY    130   LAYER   1   ROW     9   COL    10   RATE    -82.6042    
 BOUNDARY    131   LAYER   1   ROW     9   COL    11   RATE    -82.6042    
 BOUNDARY    132   LAYER   1   ROW     9   COL    12   RATE    -23.4056    
 BOUNDARY    133   LAYER   1   ROW     9   COL    13   RATE    -3.59510    
 BOUNDARY    134   LAYER   1   ROW     9   COL    14   RATE     0.00000    
 BOUNDARY    135   LAYER   1   ROW     9   COL    15   RATE     0.00000    
 BOUNDARY    136   LAYER   1   ROW    10   COL     1   RATE    -57.7023    
 BOUNDARY    137   LAYER   1   ROW    10   COL     2   RATE    -82.6042    
 BOUNDARY    138   LAYER   1   ROW    10   COL     3   RATE    -82.6042    
 BOUNDARY    139   LAYER   1   ROW    10   COL     4   RATE    -82.6042    
 BOUNDARY    140   LAYER   1   ROW    10   COL     5   RATE    -82.6042    
 BOUNDARY    141   LAYER   1   ROW    10   COL     6   RATE    -82.6042    
 BOUNDARY    142   LAYER   1   ROW    10   COL     7   RATE    -82.6042    
 BOUNDARY    143   LAYER   1   ROW    10   COL     8   RATE    -82.6042    
 BOUNDARY    144   LAYER   1   ROW    10   COL     9   RATE    -82.6042    
 BOUNDARY    145   LAYER   1   ROW    10   COL    10   RATE    -82.6042    
 BOUNDARY    146   LAYER   1   ROW    10   COL    11   RATE    -82.6042    
 BOUNDARY    147   LAYER   1   ROW    10   COL    12   RATE    -24.0637    
 BOUNDARY    148   LAYER   1   ROW    10   COL    13   RATE    -4.03175    
 BOUNDARY    149   LAYER   1   ROW    10   COL    14   RATE     0.00000    
 BOUNDARY    150   LAYER   1   ROW    10   COL    15   RATE     0.00000    

 HEAD WILL BE SAVED ON UNIT 1017 AT END OF TIME STEP    5, STRESS PERIOD    3
WEL   no.    2 value from time series:   0.0000     for time:  37.00     to  38.00    
WEL   no.    3 value from time series:   0.0000     for time:  37.00     to  38.00    
RIV   no.    1 value from time series:   101.00     for time:  37.00     to  38.00    
RIV   no.    2 value from time series:   101.00     for time:  37.00     to  38.00    
RIV   no.    3 value from time series:   111.50     for time:  37.00     to  38.00    
RIV   no.    4 value from time series:   111.50     for time:  37.00     to  38.00    
RIV   no.    5 value from time series:   115.10     for time:  37.00     to  38.00    
RIV   no.    6 value from time series:   115.10     for time:  37.00     to  38.00    
RIV   no.    7 value from time series:   104.00     for time:  37.00     to  38.00    
RIV   no.    8 value from time series:   104.00     for time:  37.00     to  38.00    
RIV   no.    9 value from time series:   113.50     for time:  37.00     to  38.00    
RIV   no.   10 value from time series:   113.50     for time:  37.00     to  38.00    
WEL   no.    2 value from time series:   0.0000     for time:  37.00     to  38.00    
WEL   no.    3 value from time series:   0.0000     for time:  37.00     to  38.00    
RIV   no.    1 value from time series:   101.00     for time:  37.00     to  38.00    
RIV   no.    2 value from time series:   101.00     for time:  37.00     to  38.00    
RIV   no.    3 value from time series:   111.50     for time:  37.00     to  38.00    
RIV   no.    4 value from time series:   111.50     for time:  37.00     to  38.00    
RIV   no.    5 value from time series:   115.10     for time:  37.00     to  38.00    
RIV   no.    6 value from time series:   115.10     for time:  37.00     to  38.00    
RIV   no.    7 value from time series:   104.00     for time:  37.00     to  38.00    
RIV   no.    8 value from time series:   104.00     for time:  37.00     to  38.00    
RIV   no.    9 value from time series:   113.50     for time:  37.00     to  38.00    
RIV   no.   10 value from time series:   113.50     for time:  37.00     to  38.00    

 OUTPUT CONTROL FOR STRESS PERIOD    3   TIME STEP    6
    SAVE BUDGET
    SAVE HEAD
    SAVE HEAD FOR ALL LAYERS
 UBDSV1 SAVING          STORAGE ON UNIT   1016 AT TIME STEP      6, STRESS PERIOD      3
 UBDSV1 SAVING FLOW RIGHT FACE  ON UNIT   1016 AT TIME STEP      6, STRESS PERIOD      3
 UBDSV1 SAVING FLOW FRONT FACE  ON UNIT   1016 AT TIME STEP      6, STRESS PERIOD      3
 UBDSV1 SAVING FLOW LOWER FACE  ON UNIT   1016 AT TIME STEP      6, STRESS PERIOD      3
 UBDSV4 SAVING WELLS NEAR RIVER ON UNIT   1016 AT TIME STEP      6, STRESS PERIOD      3

 WELLS NEAR RIVER   PERIOD  3   STEP  6
 BOUNDARY      1   LAYER   1   ROW     2   COL     3   RATE    -50.0000    
 BOUNDARY      2   LAYER   2   ROW     3   COL     4   RATE     0.00000      WELL_1
 BOUNDARY      3   LAYER   2   ROW     8   COL     4   RATE     0.00000      WELL_2
 UBDSV4 SAVING RIVER            ON UNIT   1016 AT TIME STEP      6, STRESS PERIOD      3

 RIVER              PERIOD  3   STEP  6
 BOUNDARY      1   LAYER   1   ROW     1   COL    15   RATE    -4852.76    
 BOUNDARY      2   LAYER   1   ROW     2   COL    15   RATE    -5959.17      RIV2
 BOUNDARY      3   LAYER   1   ROW     3   COL    15   RATE    -2176.51      RIV3
 BOUNDARY      4   LAYER   1   ROW     4   COL    15   RATE    -3632.64    
 BOUNDARY      5   LAYER   1   ROW     5   COL    15   RATE    -2278.02    
 BOUNDARY      6   LAYER   1   ROW     6   COL    15   RATE    -1635.16    
 BOUNDARY      7   LAYER   1   ROW     7   COL    15   RATE    -6127.09      RIVX
 BOUNDARY      8   LAYER   1   ROW     8   COL    15   RATE    -5957.31      RIVX
 BOUNDARY      9   LAYER   1   ROW     9   COL    15   RATE    -2133.98      RIVX
 BOUNDARY     10   LAYER   1   ROW    10   COL    15   RATE    -3021.64    

 GHB LAKES          PERIOD  3   STEP  6
 BOUNDARY      1   LAYER   1   ROW     3   COL     1   RATE    -14473.8    
 BOUNDARY      2   LAYER   1   ROW     7   COL     1   RATE    -1845.90      GHB2_UPPER
 BOUNDARY      3   LAYER   1   ROW     7   COL     1   RATE    -13236.8      GHB2_LOWER
 UBDSV4 SAVING RECHARGE         ON UNIT   1016 AT TIME STEP      6, STRESS PERIOD      3

 RECHARGE           PERIOD  3   STEP  6
 BOUNDARY      1   LAYER   1   ROW     1   COL     1   RATE     578.125    
 BOUNDARY      2   LAYER   1   ROW     1   COL     2   RATE     578.125    
 BOUNDARY      3   LAYER   1   ROW     1   COL     3   RATE     578.125    
 BOUNDARY      4   LAYER   1   ROW     1   COL     4   RATE     578.125    
 BOUNDARY      5   LAYER   1   ROW     1   COL     5   RATE     578.125    
 BOUNDARY      6   LAYER   1   ROW     1   COL     6   RATE     578.125    
 BOUNDARY      7   LAYER   1   ROW     1   COL     7   RATE     578.125    
 BOUNDARY      8   LAYER   1   ROW     1   COL     8   RATE     578.125    
 BOUNDARY      9   LAYER   1   ROW     1   COL     9   RATE     578.125    
 BOUNDARY     10   LAYER   1   ROW     1   COL    10   RATE     578.125    
 BOUNDARY     11   LAYER   1   ROW     1   COL    11   RATE     578.125    
 BOUNDARY     12   LAYER   1   ROW     1   COL    12   RATE     578.125    
 BOUNDARY     13   LAYER   1   ROW     1   COL    13   RATE     578.125    
 BOUNDARY     14   LAYER   1   ROW     1   COL    14   RATE     578.125    
 BOUNDARY     15   LAYER   1   ROW     1   COL    15   RATE     578.125    
 BOUNDARY     16   LAYER   1   ROW     2   COL     1   RATE     578.125    
 BOUNDARY     17   LAYER   1   ROW     2   COL     2   RATE     578.125    
 BOUNDARY     18   LAYER   1   ROW     2   COL     3   RATE     578.125    
 BOUNDARY     19   LAYER   1   ROW     2   COL     4   RATE     578.125    
 BOUNDARY     20   LAYER   1   ROW     2   COL     5   RATE     578.125    
 BOUNDARY     21   LAYER   1   ROW     2   COL     6   RATE     578.125    
 BOUNDARY     22   LAYER   1   ROW     2   COL     7   RATE     578.125    
 BOUNDARY     23   LAYER   1   ROW     2   COL     8   RATE     578.125    
 BOUNDARY     24   LAYER   1   ROW     2   COL     9   RATE     578.125    
 BOUNDARY     25   LAYER   1   ROW     2   COL    10   RATE     578.125    
 BOUNDARY     26   LAYER   1   ROW     2   COL    11   RATE     578.125    
 BOUNDARY     27   LAYER   1   ROW     2   COL    12   RATE     578.125    
 BOUNDARY     28   LAYER   1   ROW     2   COL    13   RATE     578.125    
 BOUNDARY     29   LAYER   1   ROW     2   COL    14   RATE     578.125    
 BOUNDARY     30   LAYER   1   ROW     2   COL    15   RATE     578.125    
 BOUNDARY     31   LAYER   1   ROW     3   COL     1   RATE     578.125    
 BOUNDARY     32   LAYER   1   ROW     3   COL     2   RATE     578.125    
 BOUNDARY     33   LAYER   1   ROW     3   COL     3   RATE     578.125    
 BOUNDARY     34   LAYER   1   ROW     3   COL     4   RATE     578.125    
 BOUNDARY     35   LAYER   1   ROW     3   COL     5   RATE     578.125    
 BOUNDARY     36   LAYER   1   ROW     3   COL     6   RATE     578.125    
 BOUNDARY     37   LAYER   1   ROW     3   COL     7   RATE     578.125    
 BOUNDARY     38   LAYER   1   ROW     3   COL     8   RATE     578.125    
 BOUNDARY     39   LAYER   1   ROW     3   COL     9   RATE     578.125    
 BOUNDARY     40   LAYER   1   ROW     3   COL    10   RATE     578.125    
 BOUNDARY     41   LAYER   1   ROW     3   COL    11   RATE     578.125    
 BOUNDARY     42   LAYER   1   ROW     3   COL    12   RATE     578.125    
 BOUNDARY     43   LAYER   1   ROW     3   COL    13   RATE     578.125    
 BOUNDARY     44   LAYER   1   ROW     3   COL    14   RATE     578.125    
 BOUNDARY     45   LAYER   1   ROW     3   COL    15   RATE     578.125    
 BOUNDARY     46   LAYER   1   ROW     4   COL     1   RATE     578.125    
 BOUNDARY     47   LAYER   1   ROW     4   COL     2   RATE     578.125    
 BOUNDARY     48   LAYER   1   ROW     4   COL     3   RATE     578.125    
 BOUNDARY     49   LAYER   1   ROW     4   COL     4   RATE     578.125    
 BOUNDARY     50   LAYER   1   ROW     4   COL     5   RATE     578.125    
 BOUNDARY     51   LAYER   1   ROW     4   COL     6   RATE     578.125    
 BOUNDARY     52   LAYER   1   ROW     4   COL     7   RATE     578.125    
 BOUNDARY     53   LAYER   1   ROW     4   COL     8   RATE     578.125    
 BOUNDARY     54   LAYER   1   ROW     4   COL     9   RATE     578.125    
 BOUNDARY     55   LAYER   1   ROW     4   COL    10   RATE     578.125    
 BOUNDARY     56   LAYER   1   ROW     4   COL    11   RATE     578.125    
 BOUNDARY     57   LAYER   1   ROW     4   COL    12   RATE     578.125    
 BOUNDARY     58   LAYER   1   ROW     4   COL    13   RATE     578.125    
 BOUNDARY     59   LAYER   1   ROW     4   COL    14   RATE     578.125    
 BOUNDARY     60   LAYER   1   ROW     4   COL    15   RATE     578.125    
 BOUNDARY     61   LAYER   1   ROW     5   COL     1   RATE     578.125    
 BOUNDARY     62   LAYER   1   ROW     5   COL     2   RATE     578.125    
 BOUNDARY     63   LAYER   1   ROW     5   COL     3   RATE     578.125    
 BOUNDARY     64   LAYER   1   ROW     5   COL     4   RATE     578.125    
 BOUNDARY     65   LAYER   1   ROW     5   COL     5   RATE     578.125    
 BOUNDARY     66   LAYER   1   ROW     5   COL     6   RATE     578.125    
 BOUNDARY     67   LAYER   1   ROW     5   COL     7   RATE     578.125    
 BOUNDARY     68   LAYER   1   ROW     5   COL     8   RATE     578.125    
 BOUNDARY     69   LAYER   1   ROW     5   COL     9   RATE     578.125    
 BOUNDARY     70   LAYER   1   ROW     5   COL    10   RATE     578.125    
 BOUNDARY     71   LAYER   1   ROW     5   COL    11   RATE     578.125    
 BOUNDARY     72   LAYER   1   ROW     5   COL    12   RATE     578.125    
 BOUNDARY     73   LAYER   1   ROW     5   COL    13   RATE     578.125    
 BOUNDARY     74   LAYER   1   ROW     5   COL    14   RATE     578.125    
 BOUNDARY     75   LAYER   1   ROW     5   COL    15   RATE     578.125    
 BOUNDARY     76   LAYER   1   ROW     6   COL     1   RATE     578.125    
 BOUNDARY     77   LAYER   1   ROW     6   COL     2   RATE     578.125    
 BOUNDARY     78   LAYER   1   ROW     6   COL     3   RATE     578.125    
 BOUNDARY     79   LAYER   1   ROW     6   COL     4   RATE     578.125    
 BOUNDARY     80   LAYER   1   ROW     6   COL     5   RATE     578.125    
 BOUNDARY     81   LAYER   1   ROW     6   COL     6   RATE     578.125    
 BOUNDARY     82   LAYER   1   ROW     6   COL     7   RATE     578.125    
 BOUNDARY     83   LAYER   1   ROW     6   COL     8   RATE     578.125    
 BOUNDARY     84   LAYER   1   ROW     6   COL     9   RATE     578.125    
 BOUNDARY     85   LAYER   1   ROW     6   COL    10   RATE     578.125    
 BOUNDARY     86   LAYER   1   ROW     6   COL    11   RATE     578.125    
 BOUNDARY     87   LAYER   1   ROW     6   COL    12   RATE     578.125    
 BOUNDARY     88   LAYER   1   ROW     6   COL    13   RATE     578.125    
 BOUNDARY     89   LAYER   1   ROW     6   COL    14   RATE     578.125    
 BOUNDARY     90   LAYER   1   ROW     6   COL    15   RATE     578.125    
 BOUNDARY     91   LAYER   1   ROW     7   COL     1   RATE     578.125    
 BOUNDARY     92   LAYER   1   ROW     7   COL     2   RATE     578.125    
 BOUNDARY     93   LAYER   1   ROW     7   COL     3   RATE     578.125    
 BOUNDARY     94   LAYER   1   ROW     7   COL     4   RATE     578.125    
 BOUNDARY     95   LAYER   1   ROW     7   COL     5   RATE     578.125    
 BOUNDARY     96   LAYER   1   ROW     7   COL     6   RATE     578.125    
 BOUNDARY     97   LAYER   1   ROW     7   COL     7   RATE     578.125    
 BOUNDARY     98   LAYER   1   ROW     7   COL     8   RATE     578.125    
 BOUNDARY     99   LAYER   1   ROW     7   COL     9   RATE     578.125    
 BOUNDARY    100   LAYER   1   ROW     7   COL    10   RATE     578.125    
 BOUNDARY    101   LAYER   1   ROW     7   COL    11   RATE     578.125    
 BOUNDARY    102   LAYER   1   ROW     7   COL    12   RATE     578.125    
 BOUNDARY    103   LAYER   1   ROW     7   COL    13   RATE     578.125    
 BOUNDARY    104   LAYER   1   ROW     7   COL    14   RATE     578.125    
 BOUNDARY    105   LAYER   1   ROW     7   COL    15   RATE     578.125    
 BOUNDARY    106   LAYER   1   ROW     8   COL     1   RATE     578.125    
 BOUNDARY    107   LAYER   1   ROW     8   COL     2   RATE     578.125    
 BOUNDARY    108   LAYER   1   ROW     8   COL     3   RATE     578.125    
 BOUNDARY    109   LAYER   1   ROW     8   COL     4   RATE     578.125    
 BOUNDARY    110   LAYER   1   ROW     8   COL     5   RATE     578.125    
 BOUNDARY    111   LAYER   1   ROW     8   COL     6   RATE     578.125    
 BOUNDARY    112   LAYER   1   ROW     8   COL     7   RATE     578.125    
 BOUNDARY    113   LAYER   1   ROW     8   COL     8   RATE     578.125    
 BOUNDARY    114   LAYER   1   ROW     8   COL     9   RATE     578.125    
 BOUNDARY    115   LAYER   1   ROW     8   COL    10   RATE     578.125    
 BOUNDARY    116   LAYER   1   ROW     8   COL    11   RATE     578.125    
 BOUNDARY    117   LAYER   1   ROW     8   COL    12   RATE     578.125    
 BOUNDARY    118   LAYER   1   ROW     8   COL    13   RATE     578.125    
 BOUNDARY    119   LAYER   1   ROW     8   COL    14   RATE     578.125    
 BOUNDARY    120   LAYER   1   ROW     8   COL    15   RATE     578.125    
 BOUNDARY    121   LAYER   1   ROW     9   COL     1   RATE     578.125    
 BOUNDARY    122   LAYER   1   ROW     9   COL     2   RATE     578.125    
 BOUNDARY    123   LAYER   1   ROW     9   COL     3   RATE     578.125    
 BOUNDARY    124   LAYER   1   ROW     9   COL     4   RATE     578.125    
 BOUNDARY    125   LAYER   1   ROW     9   COL     5   RATE     578.125    
 BOUNDARY    126   LAYER   1   ROW     9   COL     6   RATE     578.125    
 BOUNDARY    127   LAYER   1   ROW     9   COL     7   RATE     578.125    
 BOUNDARY    128   LAYER   1   ROW     9   COL     8   RATE     578.125    
 BOUNDARY    129   LAYER   1   ROW     9   COL     9   RATE     578.125    
 BOUNDARY    130   LAYER   1   ROW     9   COL    10   RATE     578.125    
 BOUNDARY    131   LAYER   1   ROW     9   COL    11   RATE     578.125    
 BOUNDARY    132   LAYER   1   ROW     9   COL    12   RATE     578.125    
 BOUNDARY    133   LAYER   1   ROW     9   COL    13   RATE     578.125    
 BOUNDARY    134   LAYER   1   ROW     9   COL    14   RATE     578.125    
 BOUNDARY    135   LAYER   1   ROW     9   COL    15   RATE     578.125    
 BOUNDARY    136   LAYER   1   ROW    10   COL     1   RATE     578.125    
 BOUNDARY    137   LAYER   1   ROW    10   COL     2   RATE     578.125    
 BOUNDARY    138   LAYER   1   ROW    10   COL     3   RATE     578.125    
 BOUNDARY    139   LAYER   1   ROW    10   COL     4   RATE     578.125    
 BOUNDARY    140   LAYER   1   ROW    10   COL     5   RATE     578.125    
 BOUNDARY    141   LAYER   1   ROW    10   COL     6   RATE     578.125    
 BOUNDARY    142   LAYER   1   ROW    10   COL     7   RATE     578.125    
 BOUNDARY    143   LAYER   1   ROW    10   COL     8   RATE     578.125    
 BOUNDARY    144   LAYER   1   ROW    10   COL     9   RATE     578.125    
 BOUNDARY    145   LAYER   1   ROW    10   COL    10   RATE     578.125    
 BOUNDARY    146   LAYER   1   ROW    10   COL    11   RATE     578.125    
 BOUNDARY    147   LAYER   1   ROW    10   COL    12   RATE     578.125    
 BOUNDARY    148   LAYER   1   ROW    10   COL    13   RATE     578.125    
 BOUNDARY    149   LAYER   1   ROW    10   COL    14   RATE     578.125    
 BOUNDARY    150   LAYER   1   ROW    10   COL    15   RATE     578.125    
 UBDSV4 SAVING ET SEGS          ON UNIT   1016 AT TIME STEP      6, STRESS PERIOD      3

 ET SEGS            PERIOD  3   STEP  6
 BOUNDARY      1   LAYER   1   ROW     1   COL     1   RATE    -1.80760    
 BOUNDARY      2   LAYER   1   ROW     1   COL     2   RATE    -7.48817    
 BOUNDARY      3   LAYER   1   ROW     1   COL     3   RATE    -41.5268    
 BOUNDARY      4   LAYER   1   ROW     1   COL     4   RATE    -82.8125    
 BOUNDARY      5   LAYER   1   ROW     1   COL     5   RATE    -82.8125    
 BOUNDARY      6   LAYER   1   ROW     1   COL     6   RATE    -82.8125    
 BOUNDARY      7   LAYER   1   ROW     1   COL     7   RATE    -82.8125    
 BOUNDARY      8   LAYER   1   ROW     1   COL     8   RATE    -82.8125    
 BOUNDARY      9   LAYER   1   ROW     1   COL     9   RATE    -82.8125    
 BOUNDARY     10   LAYER   1   ROW     1   COL    10   RATE    -82.8125    
 BOUNDARY     11   LAYER   1   ROW     1   COL    11   RATE    -82.8125    
 BOUNDARY     12   LAYER   1   ROW     1   COL    12   RATE    -14.0419    
 BOUNDARY     13   LAYER   1   ROW     1   COL    13   RATE     0.00000    
 BOUNDARY     14   LAYER   1   ROW     1   COL    14   RATE     0.00000    
 BOUNDARY     15   LAYER   1   ROW     1   COL    15   RATE     0.00000    
 BOUNDARY     16   LAYER   1   ROW     2   COL     1   RATE     0.00000    
 BOUNDARY     17   LAYER   1   ROW     2   COL     2   RATE    -3.74544    
 BOUNDARY     18   LAYER   1   ROW     2   COL     3   RATE    -23.5072    
 BOUNDARY     19   LAYER   1   ROW     2   COL     4   RATE    -82.8125    
 BOUNDARY     20   LAYER   1   ROW     2   COL     5   RATE    -82.8125    
 BOUNDARY     21   LAYER   1   ROW     2   COL     6   RATE    -82.8125    
 BOUNDARY     22   LAYER   1   ROW     2   COL     7   RATE    -82.8125    
 BOUNDARY     23   LAYER   1   ROW     2   COL     8   RATE    -82.8125    
 BOUNDARY     24   LAYER   1   ROW     2   COL     9   RATE    -82.8125    
 BOUNDARY     25   LAYER   1   ROW     2   COL    10   RATE    -82.8125    
 BOUNDARY     26   LAYER   1   ROW     2   COL    11   RATE    -82.8125    
 BOUNDARY     27   LAYER   1   ROW     2   COL    12   RATE    -15.4842    
 BOUNDARY     28   LAYER   1   ROW     2   COL    13   RATE   -0.119561    
 BOUNDARY     29   LAYER   1   ROW     2   COL    14   RATE     0.00000    
 BOUNDARY     30   LAYER   1   ROW     2   COL    15   RATE     0.00000    
 BOUNDARY     31   LAYER   1   ROW     3   COL     1   RATE     0.00000    
 BOUNDARY     32   LAYER   1   ROW     3   COL     2   RATE     0.00000    
 BOUNDARY     33   LAYER   1   ROW     3   COL     3   RATE    -18.5929    
 BOUNDARY     34   LAYER   1   ROW     3   COL     4   RATE    -82.8125    
 BOUNDARY     35   LAYER   1   ROW     3   COL     5   RATE    -82.8125    
 BOUNDARY     36   LAYER   1   ROW     3   COL     6   RATE    -82.8125    
 BOUNDARY     37   LAYER   1   ROW     3   COL     7   RATE    -82.8125    
 BOUNDARY     38   LAYER   1   ROW     3   COL     8   RATE    -82.8125    
 BOUNDARY     39   LAYER   1   ROW     3   COL     9   RATE    -82.8125    
 BOUNDARY     40   LAYER   1   ROW     3   COL    10   RATE    -82.8125    
 BOUNDARY     41   LAYER   1   ROW     3   COL    11   RATE    -82.8125    
 BOUNDARY     42   LAYER   1   ROW     3   COL    12   RATE    -17.9172    
 BOUNDARY     43   LAYER   1   ROW     3   COL    13   RATE    -1.60040    
 BOUNDARY     44   LAYER   1   ROW     3   COL    14   RATE     0.00000    
 BOUNDARY     45   LAYER   1   ROW     3   COL    15   RATE     0.00000    
 BOUNDARY     46   LAYER   1   ROW     4   COL     1   RATE     0.00000    
 BOUNDARY     47   LAYER   1   ROW     4   COL     2   RATE    -2.49149    
 BOUNDARY     48   LAYER   1   ROW     4   COL     3   RATE    -21.7993    
 BOUNDARY     49   LAYER   1   ROW     4   COL     4   RATE    -82.8125    
 BOUNDARY     50   LAYER   1   ROW     4   COL     5   RATE    -82.8125    
 BOUNDARY     51   LAYER   1   ROW     4   COL     6   RATE    -82.8125    
 BOUNDARY     52   LAYER   1   ROW     4   COL     7   RATE    -82.8125    
 BOUNDARY     53   LAYER   1   ROW     4   COL     8   RATE    -82.8125    
 BOUNDARY     54   LAYER   1   ROW     4   COL     9   RATE    -82.8125    
 BOUNDARY     55   LAYER   1   ROW     4   COL    10   RATE    -82.8125    
 BOUNDARY     56   LAYER   1   ROW     4   COL    11   RATE    -82.8125    
 BOUNDARY     57   LAYER   1   ROW     4   COL    12   RATE    -20.2388    
 BOUNDARY     58   LAYER   1   ROW     4   COL    13   RATE    -2.81168    
 BOUNDARY     59   LAYER   1   ROW     4   COL    14   RATE     0.00000    
 BOUNDARY     60   LAYER   1   ROW     4   COL    15   RATE     0.00000    
 BOUNDARY     61   LAYER   1   ROW     5   COL     1   RATE     0.00000    
 BOUNDARY     62   LAYER   1   ROW     5   COL     2   RATE    -4.95529    
 BOUNDARY     63   LAYER   1   ROW     5   COL     3   RATE    -26.2140    
 BOUNDARY     64   LAYER   1   ROW     5   COL     4   RATE    -82.8125    
 BOUNDARY     65   LAYER   1   ROW     5   COL     5   RATE    -82.8125    
 BOUNDARY     66   LAYER   1   ROW     5   COL     6   RATE    -82.8125    
 BOUNDARY     67   LAYER   1   ROW     5   COL     7   RATE    -82.8125    
 BOUNDARY     68   LAYER   1   ROW     5   COL     8   RATE    -82.8125    
 BOUNDARY     69   LAYER   1   ROW     5   COL     9   RATE    -82.8125    
 BOUNDARY     70   LAYER   1   ROW     5   COL    10   RATE    -82.8125    
 BOUNDARY     71   LAYER   1   ROW     5   COL    11   RATE    -82.8125    
 BOUNDARY     72   LAYER   1   ROW     5   COL    12   RATE    -21.8454    
 BOUNDARY     73   LAYER   1   ROW     5   COL    13   RATE    -3.56267    
 BOUNDARY     74   LAYER   1   ROW     5   COL    14   RATE     0.00000    
 BOUNDARY     75   LAYER   1   ROW     5   COL    15   RATE     0.00000    
 BOUNDARY     76   LAYER   1   ROW     6   COL     1   RATE     0.00000    
 BOUNDARY     77   LAYER   1   ROW     6   COL     2   RATE    -3.77135    
 BOUNDARY     78   LAYER   1   ROW     6   COL     3   RATE    -29.4369    
 BOUNDARY     79   LAYER   1   ROW     6   COL     4   RATE    -82.8125    
 BOUNDARY     80   LAYER   1   ROW     6   COL     5   RATE    -82.8125    
 BOUNDARY     81   LAYER   1   ROW     6   COL     6   RATE    -82.8125    
 BOUNDARY     82   LAYER   1   ROW     6   COL     7   RATE    -82.8125    
 BOUNDARY     83   LAYER   1   ROW     6   COL     8   RATE    -82.8125    
 BOUNDARY     84   LAYER   1   ROW     6   COL     9   RATE    -82.8125    
 BOUNDARY     85   LAYER   1   ROW     6   COL    10   RATE    -82.8125    
 BOUNDARY     86   LAYER   1   ROW     6   COL    11   RATE    -82.8125    
 BOUNDARY     87   LAYER   1   ROW     6   COL    12   RATE    -22.3840    
 BOUNDARY     88   LAYER   1   ROW     6   COL    13   RATE    -3.52840    
 BOUNDARY     89   LAYER   1   ROW     6   COL    14   RATE     0.00000    
 BOUNDARY     90   LAYER   1   ROW     6   COL    15   RATE     0.00000    
 BOUNDARY     91   LAYER   1   ROW     7   COL     1   RATE     0.00000    
 BOUNDARY     92   LAYER   1   ROW     7   COL     2   RATE   -0.874856    
 BOUNDARY     93   LAYER   1   ROW     7   COL     3   RATE    -35.2098    
 BOUNDARY     94   LAYER   1   ROW     7   COL     4   RATE    -82.8125    
 BOUNDARY     95   LAYER   1   ROW     7   COL     5   RATE    -82.8125    
 BOUNDARY     96   LAYER   1   ROW     7   COL     6   RATE    -82.8125    
 BOUNDARY     97   LAYER   1   ROW     7   COL     7   RATE    -82.8125    
 BOUNDARY     98   LAYER   1   ROW     7   COL     8   RATE    -82.8125    
 BOUNDARY     99   LAYER   1   ROW     7   COL     9   RATE    -82.8125    
 BOUNDARY    100   LAYER   1   ROW     7   COL    10   RATE    -82.8125    
 BOUNDARY    101   LAYER   1   ROW     7   COL    11   RATE    -82.8125    
 BOUNDARY    102   LAYER   1   ROW     7   COL    12   RATE    -22.2506    
 BOUNDARY    103   LAYER   1   ROW     7   COL    13   RATE    -2.92360    
 BOUNDARY    104   LAYER   1   ROW     7   COL    14   RATE     0.00000    
 BOUNDARY    105   LAYER   1   ROW     7   COL    15   RATE     0.00000    
 BOUNDARY    106   LAYER   1   ROW     8   COL     1   RATE     0.00000    
 BOUNDARY    107   LAYER   1   ROW     8   COL     2   RATE    -9.46515    
 BOUNDARY    108   LAYER   1   ROW     8   COL     3   RATE    -82.8125    
 BOUNDARY    109   LAYER   1   ROW     8   COL     4   RATE    -82.8125    
 BOUNDARY    110   LAYER   1   ROW     8   COL     5   RATE    -82.8125    
 BOUNDARY    111   LAYER   1   ROW     8   COL     6   RATE    -82.8125    
 BOUNDARY    112   LAYER   1   ROW     8   COL     7   RATE    -82.8125    
 BOUNDARY    113   LAYER   1   ROW     8   COL     8   RATE    -82.8125    
 BOUNDARY    114   LAYER   1   ROW     8   COL     9   RATE    -82.8125    
 BOUNDARY    115   LAYER   1   ROW     8   COL    10   RATE    -82.8125    
 BOUNDARY    116   LAYER   1   ROW     8   COL    11   RATE    -82.8125    
 BOUNDARY    117   LAYER   1   ROW     8   COL    12   RATE    -22.5728    
 BOUNDARY    118   LAYER   1   ROW     8   COL    13   RATE    -2.92789    
 BOUNDARY    119   LAYER   1   ROW     8   COL    14   RATE     0.00000    
 BOUNDARY    120   LAYER   1   ROW     8   COL    15   RATE     0.00000    
 BOUNDARY    121   LAYER   1   ROW     9   COL     1   RATE    -15.7479    
 BOUNDARY    122   LAYER   1   ROW     9   COL     2   RATE    -51.1066    
 BOUNDARY    123   LAYER   1   ROW     9   COL     3   RATE    -82.8125    
 BOUNDARY    124   LAYER   1   ROW     9   COL     4   RATE    -82.8125    
 BOUNDARY    125   LAYER   1   ROW     9   COL     5   RATE    -82.8125    
 BOUNDARY    126   LAYER   1   ROW     9   COL     6   RATE    -82.8125    
 BOUNDARY    127   LAYER   1   ROW     9   COL     7   RATE    -82.8125    
 BOUNDARY    128   LAYER   1   ROW     9   COL     8   RATE    -82.8125    
 BOUNDARY    129   LAYER   1   ROW     9   COL     9   RATE    -82.8125    
 BOUNDARY    130   LAYER   1   ROW     9   COL    10   RATE    -82.8125    
 BOUNDARY    131   LAYER   1   ROW     9   COL    11   RATE    -82.8125    
 BOUNDARY    132   LAYER   1   ROW     9   COL    12   RATE    -23.4841    
 BOUNDARY    133   LAYER   1   ROW     9   COL    13   RATE    -3.61059    
 BOUNDARY    134   LAYER   1   ROW     9   COL    14   RATE     0.00000    
 BOUNDARY    135   LAYER   1   ROW     9   COL    15   RATE     0.00000    
 BOUNDARY    136   LAYER   1   ROW    10   COL     1   RATE    -57.9464    
 BOUNDARY    137   LAYER   1   ROW    10   COL     2   RATE    -82.8125    
 BOUNDARY    138   LAYER   1   ROW    10   COL     3   RATE    -82.8125    
 BOUNDARY    139   LAYER   1   ROW    10   COL     4   RATE    -82.8125    
 BOUNDARY    140   LAYER   1   ROW    10   COL     5   RATE    -82.8125    
 BOUNDARY    141   LAYER   1   ROW    10   COL     6   RATE    -82.8125    
 BOUNDARY    142   LAYER   1   ROW    10   COL     7   RATE    -82.8125    
 BOUNDARY    143   LAYER   1   ROW    10   COL     8   RATE    -82.8125    
 BOUNDARY    144   LAYER   1   ROW    10   COL     9   RATE    -82.8125    
 BOUNDARY    145   LAYER   1   ROW    10   COL    10   RATE    -82.8125    
 BOUNDARY    146   LAYER   1   ROW    10   COL    11   RATE    -82.8125    
 BOUNDARY    147   LAYER   1   ROW    10   COL    12   RATE    -24.1440    
 BOUNDARY    148   LAYER   1   ROW    10   COL    13   RATE    -4.04857    
 BOUNDARY    149   LAYER   1   ROW    10   COL    14   RATE     0.00000    
 BOUNDARY    150   LAYER   1   ROW    10   COL    15   RATE     0.00000    

 HEAD WILL BE SAVED ON UNIT 1017 AT END OF TIME STEP    6, STRESS PERIOD    3
WEL   no.    2 value from time series:   0.0000     for time:  38.00     to  39.00    
WEL   no.    3 value from time series:   0.0000     for time:  38.00     to  39.00    
RIV   no.    1 value from time series:   101.00     for time:  38.00     to  39.00    
RIV   no.    2 value from time series:   101.00     for time:  38.00     to  39.00    
RIV   no.    3 value from time series:   111.50     for time:  38.00     to  39.00    
RIV   no.    4 value from time series:   111.50     for time:  38.00     to  39.00    
RIV   no.    5 value from time series:   115.10     for time:  38.00     to  39.00    
RIV   no.    6 value from time series:   115.10     for time:  38.00     to  39.00    
RIV   no.    7 value from time series:   104.00     for time:  38.00     to  39.00    
RIV   no.    8 value from time series:   104.00     for time:  38.00     to  39.00    
RIV   no.    9 value from time series:   113.50     for time:  38.00     to  39.00    
RIV   no.   10 value from time series:   113.50     for time:  38.00     to  39.00    
WEL   no.    2 value from time series:   0.0000     for time:  38.00     to  39.00    
WEL   no.    3 value from time series:   0.0000     for time:  38.00     to  39.00    
RIV   no.    1 value from time series:   101.00     for time:  38.00     to  39.00    
RIV   no.    2 value from time series:   101.00     for time:  38.00     to  39.00    
RIV   no.    3 value from time series:   111.50     for time:  38.00     to  39.00    
RIV   no.    4 value from time series:   111.50     for time:  38.00     to  39.00    
RIV   no.    5 value from time series:   115.10     for time:  38.00     to  39.00    
RIV   no.    6 value from time series:   115.10     for time:  38.00     to  39.00    
RIV   no.    7 value from time series:   104.00     for time:  38.00     to  39.00    
RIV   no.    8 value from time series:   104.00     for time:  38.00     to  39.00    
RIV   no.    9 value from time series:   113.50     for time:  38.00     to  39.00    
RIV   no.   10 value from time series:   113.50     for time:  38.00     to  39.00    

 OUTPUT CONTROL FOR STRESS PERIOD    3   TIME STEP    7
    SAVE BUDGET
    SAVE HEAD
    SAVE HEAD FOR ALL LAYERS
 UBDSV1 SAVING          STORAGE ON UNIT   1016 AT TIME STEP      7, STRESS PERIOD      3
 UBDSV1 SAVING FLOW RIGHT FACE  ON UNIT   1016 AT TIME STEP      7, STRESS PERIOD      3
 UBDSV1 SAVING FLOW FRONT FACE  ON UNIT   1016 AT TIME STEP      7, STRESS PERIOD      3
 UBDSV1 SAVING FLOW LOWER FACE  ON UNIT   1016 AT TIME STEP      7, STRESS PERIOD      3
 UBDSV4 SAVING WELLS NEAR RIVER ON UNIT   1016 AT TIME STEP      7, STRESS PERIOD      3

 WELLS NEAR RIVER   PERIOD  3   STEP  7
 BOUNDARY      1   LAYER   1   ROW     2   COL     3   RATE    -50.0000    
 BOUNDARY      2   LAYER   2   ROW     3   COL     4   RATE     0.00000      WELL_1
 BOUNDARY      3   LAYER   2   ROW     8   COL     4   RATE     0.00000      WELL_2
 UBDSV4 SAVING RIVER            ON UNIT   1016 AT TIME STEP      7, STRESS PERIOD      3

 RIVER              PERIOD  3   STEP  7
 BOUNDARY      1   LAYER   1   ROW     1   COL    15   RATE    -4848.05    
 BOUNDARY      2   LAYER   1   ROW     2   COL    15   RATE    -5955.10      RIV2
 BOUNDARY      3   LAYER   1   ROW     3   COL    15   RATE    -2175.35      RIV3
 BOUNDARY      4   LAYER   1   ROW     4   COL    15   RATE    -3631.65    
 BOUNDARY      5   LAYER   1   ROW     5   COL    15   RATE    -2276.80    
 BOUNDARY      6   LAYER   1   ROW     6   COL    15   RATE    -1633.54    
 BOUNDARY      7   LAYER   1   ROW     7   COL    15   RATE    -6124.57      RIVX
 BOUNDARY      8   LAYER   1   ROW     8   COL    15   RATE    -5955.53      RIVX
 BOUNDARY      9   LAYER   1   ROW     9   COL    15   RATE    -2133.89      RIVX
 BOUNDARY     10   LAYER   1   ROW    10   COL    15   RATE    -3022.21    

 GHB LAKES          PERIOD  3   STEP  7
 BOUNDARY      1   LAYER   1   ROW     3   COL     1   RATE    -14476.1    
 BOUNDARY      2   LAYER   1   ROW     7   COL     1   RATE    -1847.26      GHB2_UPPER
 BOUNDARY      3   LAYER   1   ROW     7   COL     1   RATE    -13237.3      GHB2_LOWER
 UBDSV4 SAVING RECHARGE         ON UNIT   1016 AT TIME STEP      7, STRESS PERIOD      3

 RECHARGE           PERIOD  3   STEP  7
 BOUNDARY      1   LAYER   1   ROW     1   COL     1   RATE     580.208    
 BOUNDARY      2   LAYER   1   ROW     1   COL     2   RATE     580.208    
 BOUNDARY      3   LAYER   1   ROW     1   COL     3   RATE     580.208    
 BOUNDARY      4   LAYER   1   ROW     1   COL     4   RATE     580.208    
 BOUNDARY      5   LAYER   1   ROW     1   COL     5   RATE     580.208    
 BOUNDARY      6   LAYER   1   ROW     1   COL     6   RATE     580.208    
 BOUNDARY      7   LAYER   1   ROW     1   COL     7   RATE     580.208    
 BOUNDARY      8   LAYER   1   ROW     1   COL     8   RATE     580.208    
 BOUNDARY      9   LAYER   1   ROW     1   COL     9   RATE     580.208    
 BOUNDARY     10   LAYER   1   ROW     1   COL    10   RATE     580.208    
 BOUNDARY     11   LAYER   1   ROW     1   COL    11   RATE     580.208    
 BOUNDARY     12   LAYER   1   ROW     1   COL    12   RATE     580.208    
 BOUNDARY     13   LAYER   1   ROW     1   COL    13   RATE     580.208    
 BOUNDARY     14   LAYER   1   ROW     1   COL    14   RATE     580.208    
 BOUNDARY     15   LAYER   1   ROW     1   COL    15   RATE     580.208    
 BOUNDARY     16   LAYER   1   ROW     2   COL     1   RATE     580.208    
 BOUNDARY     17   LAYER   1   ROW     2   COL     2   RATE     580.208    
 BOUNDARY     18   LAYER   1   ROW     2   COL     3   RATE     580.208    
 BOUNDARY     19   LAYER   1   ROW     2   COL     4   RATE     580.208    
 BOUNDARY     20   LAYER   1   ROW     2   COL     5   RATE     580.208    
 BOUNDARY     21   LAYER   1   ROW     2   COL     6   RATE     580.208    
 BOUNDARY     22   LAYER   1   ROW     2   COL     7   RATE     580.208    
 BOUNDARY     23   LAYER   1   ROW     2   COL     8   RATE     580.208    
 BOUNDARY     24   LAYER   1   ROW     2   COL     9   RATE     580.208    
 BOUNDARY     25   LAYER   1   ROW     2   COL    10   RATE     580.208    
 BOUNDARY     26   LAYER   1   ROW     2   COL    11   RATE     580.208    
 BOUNDARY     27   LAYER   1   ROW     2   COL    12   RATE     580.208    
 BOUNDARY     28   LAYER   1   ROW     2   COL    13   RATE     580.208    
 BOUNDARY     29   LAYER   1   ROW     2   COL    14   RATE     580.208    
 BOUNDARY     30   LAYER   1   ROW     2   COL    15   RATE     580.208    
 BOUNDARY     31   LAYER   1   ROW     3   COL     1   RATE     580.208    
 BOUNDARY     32   LAYER   1   ROW     3   COL     2   RATE     580.208    
 BOUNDARY     33   LAYER   1   ROW     3   COL     3   RATE     580.208    
 BOUNDARY     34   LAYER   1   ROW     3   COL     4   RATE     580.208    
 BOUNDARY     35   LAYER   1   ROW     3   COL     5   RATE     580.208    
 BOUNDARY     36   LAYER   1   ROW     3   COL     6   RATE     580.208    
 BOUNDARY     37   LAYER   1   ROW     3   COL     7   RATE     580.208    
 BOUNDARY     38   LAYER   1   ROW     3   COL     8   RATE     580.208    
 BOUNDARY     39   LAYER   1   ROW     3   COL     9   RATE     580.208    
 BOUNDARY     40   LAYER   1   ROW     3   COL    10   RATE     580.208    
 BOUNDARY     41   LAYER   1   ROW     3   COL    11   RATE     580.208    
 BOUNDARY     42   LAYER   1   ROW     3   COL    12   RATE     580.208    
 BOUNDARY     43   LAYER   1   ROW     3   COL    13   RATE     580.208    
 BOUNDARY     44   LAYER   1   ROW     3   COL    14   RATE     580.208    
 BOUNDARY     45   LAYER   1   ROW     3   COL    15   RATE     580.208    
 BOUNDARY     46   LAYER   1   ROW     4   COL     1   RATE     580.208    
 BOUNDARY     47   LAYER   1   ROW     4   COL     2   RATE     580.208    
 BOUNDARY     48   LAYER   1   ROW     4   COL     3   RATE     580.208    
 BOUNDARY     49   LAYER   1   ROW     4   COL     4   RATE     580.208    
 BOUNDARY     50   LAYER   1   ROW     4   COL     5   RATE     580.208    
 BOUNDARY     51   LAYER   1   ROW     4   COL     6   RATE     580.208    
 BOUNDARY     52   LAYER   1   ROW     4   COL     7   RATE     580.208    
 BOUNDARY     53   LAYER   1   ROW     4   COL     8   RATE     580.208    
 BOUNDARY     54   LAYER   1   ROW     4   COL     9   RATE     580.208    
 BOUNDARY     55   LAYER   1   ROW     4   COL    10   RATE     580.208    
 BOUNDARY     56   LAYER   1   ROW     4   COL    11   RATE     580.208    
 BOUNDARY     57   LAYER   1   ROW     4   COL    12   RATE     580.208    
 BOUNDARY     58   LAYER   1   ROW     4   COL    13   RATE     580.208    
 BOUNDARY     59   LAYER   1   ROW     4   COL    14   RATE     580.208    
 BOUNDARY     60   LAYER   1   ROW     4   COL    15   RATE     580.208    
 BOUNDARY     61   LAYER   1   ROW     5   COL     1   RATE     580.208    
 BOUNDARY     62   LAYER   1   ROW     5   COL     2   RATE     580.208    
 BOUNDARY     63   LAYER   1   ROW     5   COL     3   RATE     580.208    
 BOUNDARY     64   LAYER   1   ROW     5   COL     4   RATE     580.208    
 BOUNDARY     65   LAYER   1   ROW     5   COL     5   RATE     580.208    
 BOUNDARY     66   LAYER   1   ROW     5   COL     6   RATE     580.208    
 BOUNDARY     67   LAYER   1   ROW     5   COL     7   RATE     580.208    
 BOUNDARY     68   LAYER   1   ROW     5   COL     8   RATE     580.208    
 BOUNDARY     69   LAYER   1   ROW     5   COL     9   RATE     580.208    
 BOUNDARY     70   LAYER   1   ROW     5   COL    10   RATE     580.208    
 BOUNDARY     71   LAYER   1   ROW     5   COL    11   RATE     580.208    
 BOUNDARY     72   LAYER   1   ROW     5   COL    12   RATE     580.208    
 BOUNDARY     73   LAYER   1   ROW     5   COL    13   RATE     580.208    
 BOUNDARY     74   LAYER   1   ROW     5   COL    14   RATE     580.208    
 BOUNDARY     75   LAYER   1   ROW     5   COL    15   RATE     580.208    
 BOUNDARY     76   LAYER   1   ROW     6   COL     1   RATE     580.208    
 BOUNDARY     77   LAYER   1   ROW     6   COL     2   RATE     580.208    
 BOUNDARY     78   LAYER   1   ROW     6   COL     3   RATE     580.208    
 BOUNDARY     79   LAYER   1   ROW     6   COL     4   RATE     580.208    
 BOUNDARY     80   LAYER   1   ROW     6   COL     5   RATE     580.208    
 BOUNDARY     81   LAYER   1   ROW     6   COL     6   RATE     580.208    
 BOUNDARY     82   LAYER   1   ROW     6   COL     7   RATE     580.208    
 BOUNDARY     83   LAYER   1   ROW     6   COL     8   RATE     580.208    
 BOUNDARY     84   LAYER   1   ROW     6   COL     9   RATE     580.208    
 BOUNDARY     85   LAYER   1   ROW     6   COL    10   RATE     580.208    
 BOUNDARY     86   LAYER   1   ROW     6   COL    11   RATE     580.208    
 BOUNDARY     87   LAYER   1   ROW     6   COL    12   RATE     580.208    
 BOUNDARY     88   LAYER   1   ROW     6   COL    13   RATE     580.208    
 BOUNDARY     89   LAYER   1   ROW     6   COL    14   RATE     580.208    
 BOUNDARY     90   LAYER   1   ROW     6   COL    15   RATE     580.208    
 BOUNDARY     91   LAYER   1   ROW     7   COL     1   RATE     580.208    
 BOUNDARY     92   LAYER   1   ROW     7   COL     2   RATE     580.208    
 BOUNDARY     93   LAYER   1   ROW     7   COL     3   RATE     580.208    
 BOUNDARY     94   LAYER   1   ROW     7   COL     4   RATE     580.208    
 BOUNDARY     95   LAYER   1   ROW     7   COL     5   RATE     580.208    
 BOUNDARY     96   LAYER   1   ROW     7   COL     6   RATE     580.208    
 BOUNDARY     97   LAYER   1   ROW     7   COL     7   RATE     580.208    
 BOUNDARY     98   LAYER   1   ROW     7   COL     8   RATE     580.208    
 BOUNDARY     99   LAYER   1   ROW     7   COL     9   RATE     580.208    
 BOUNDARY    100   LAYER   1   ROW     7   COL    10   RATE     580.208    
 BOUNDARY    101   LAYER   1   ROW     7   COL    11   RATE     580.208    
 BOUNDARY    102   LAYER   1   ROW     7   COL    12   RATE     580.208    
 BOUNDARY    103   LAYER   1   ROW     7   COL    13   RATE     580.208    
 BOUNDARY    104   LAYER   1   ROW     7   COL    14   RATE     580.208    
 BOUNDARY    105   LAYER   1   ROW     7   COL    15   RATE     580.208    
 BOUNDARY    106   LAYER   1   ROW     8   COL     1   RATE     580.208    
 BOUNDARY    107   LAYER   1   ROW     8   COL     2   RATE     580.208    
 BOUNDARY    108   LAYER   1   ROW     8   COL     3   RATE     580.208    
 BOUNDARY    109   LAYER   1   ROW     8   COL     4   RATE     580.208    
 BOUNDARY    110   LAYER   1   ROW     8   COL     5   RATE     580.208    
 BOUNDARY    111   LAYER   1   ROW     8   COL     6   RATE     580.208    
 BOUNDARY    112   LAYER   1   ROW     8   COL     7   RATE     580.208    
 BOUNDARY    113   LAYER   1   ROW     8   COL     8   RATE     580.208    
 BOUNDARY    114   LAYER   1   ROW     8   COL     9   RATE     580.208    
 BOUNDARY    115   LAYER   1   ROW     8   COL    10   RATE     580.208    
 BOUNDARY    116   LAYER   1   ROW     8   COL    11   RATE     580.208    
 BOUNDARY    117   LAYER   1   ROW     8   COL    12   RATE     580.208    
 BOUNDARY    118   LAYER   1   ROW     8   COL    13   RATE     580.208    
 BOUNDARY    119   LAYER   1   ROW     8   COL    14   RATE     580.208    
 BOUNDARY    120   LAYER   1   ROW     8   COL    15   RATE     580.208    
 BOUNDARY    121   LAYER   1   ROW     9   COL     1   RATE     580.208    
 BOUNDARY    122   LAYER   1   ROW     9   COL     2   RATE     580.208    
 BOUNDARY    123   LAYER   1   ROW     9   COL     3   RATE     580.208    
 BOUNDARY    124   LAYER   1   ROW     9   COL     4   RATE     580.208    
 BOUNDARY    125   LAYER   1   ROW     9   COL     5   RATE     580.208    
 BOUNDARY    126   LAYER   1   ROW     9   COL     6   RATE     580.208    
 BOUNDARY    127   LAYER   1   ROW     9   COL     7   RATE     580.208    
 BOUNDARY    128   LAYER   1   ROW     9   COL     8   RATE     580.208    
 BOUNDARY    129   LAYER   1   ROW     9   COL     9   RATE     580.208    
 BOUNDARY    130   LAYER   1   ROW     9   COL    10   RATE     580.208    
 BOUNDARY    131   LAYER   1   ROW     9   COL    11   RATE     580.208    
 BOUNDARY    132   LAYER   1   ROW     9   COL    12   RATE     580.208    
 BOUNDARY    133   LAYER   1   ROW     9   COL    13   RATE     580.208    
 BOUNDARY    134   LAYER   1   ROW     9   COL    14   RATE     580.208    
 BOUNDARY    135   LAYER   1   ROW     9   COL    15   RATE     580.208    
 BOUNDARY    136   LAYER   1   ROW    10   COL     1   RATE     580.208    
 BOUNDARY    137   LAYER   1   ROW    10   COL     2   RATE     580.208    
 BOUNDARY    138   LAYER   1   ROW    10   COL     3   RATE     580.208    
 BOUNDARY    139   LAYER   1   ROW    10   COL     4   RATE     580.208    
 BOUNDARY    140   LAYER   1   ROW    10   COL     5   RATE     580.208    
 BOUNDARY    141   LAYER   1   ROW    10   COL     6   RATE     580.208    
 BOUNDARY    142   LAYER   1   ROW    10   COL     7   RATE     580.208    
 BOUNDARY    143   LAYER   1   ROW    10   COL     8   RATE     580.208    
 BOUNDARY    144   LAYER   1   ROW    10   COL     9   RATE     580.208    
 BOUNDARY    145   LAYER   1   ROW    10   COL    10   RATE     580.208    
 BOUNDARY    146   LAYER   1   ROW    10   COL    11   RATE     580.208    
 BOUNDARY    147   LAYER   1   ROW    10   COL    12   RATE     580.208    
 BOUNDARY    148   LAYER   1   ROW    10   COL    13   RATE     580.208    
 BOUNDARY    149   LAYER   1   ROW    10   COL    14   RATE     580.208    
 BOUNDARY    150   LAYER   1   ROW    10   COL    15   RATE     580.208    
 UBDSV4 SAVING ET SEGS          ON UNIT   1016 AT TIME STEP      7, STRESS PERIOD      3

 ET SEGS            PERIOD  3   STEP  7
 BOUNDARY      1   LAYER   1   ROW     1   COL     1   RATE    -1.81738    
 BOUNDARY      2   LAYER   1   ROW     1   COL     2   RATE    -7.51240    
 BOUNDARY      3   LAYER   1   ROW     1   COL     3   RATE    -41.7262    
 BOUNDARY      4   LAYER   1   ROW     1   COL     4   RATE    -83.0208    
 BOUNDARY      5   LAYER   1   ROW     1   COL     5   RATE    -83.0208    
 BOUNDARY      6   LAYER   1   ROW     1   COL     6   RATE    -83.0208    
 BOUNDARY      7   LAYER   1   ROW     1   COL     7   RATE    -83.0208    
 BOUNDARY      8   LAYER   1   ROW     1   COL     8   RATE    -83.0208    
 BOUNDARY      9   LAYER   1   ROW     1   COL     9   RATE    -83.0208    
 BOUNDARY     10   LAYER   1   ROW     1   COL    10   RATE    -83.0208    
 BOUNDARY     11   LAYER   1   ROW     1   COL    11   RATE    -83.0208    
 BOUNDARY     12   LAYER   1   ROW     1   COL    12   RATE    -14.0967    
 BOUNDARY     13   LAYER   1   ROW     1   COL    13   RATE     0.00000    
 BOUNDARY     14   LAYER   1   ROW     1   COL    14   RATE     0.00000    
 BOUNDARY     15   LAYER   1   ROW     1   COL    15   RATE     0.00000    
 BOUNDARY     16   LAYER   1   ROW     2   COL     1   RATE     0.00000    
 BOUNDARY     17   LAYER   1   ROW     2   COL     2   RATE    -3.75997    
 BOUNDARY     18   LAYER   1   ROW     2   COL     3   RATE    -23.5776    
 BOUNDARY     19   LAYER   1   ROW     2   COL     4   RATE    -83.0208    
 BOUNDARY     20   LAYER   1   ROW     2   COL     5   RATE    -83.0208    
 BOUNDARY     21   LAYER   1   ROW     2   COL     6   RATE    -83.0208    
 BOUNDARY     22   LAYER   1   ROW     2   COL     7   RATE    -83.0208    
 BOUNDARY     23   LAYER   1   ROW     2   COL     8   RATE    -83.0208    
 BOUNDARY     24   LAYER   1   ROW     2   COL     9   RATE    -83.0208    
 BOUNDARY     25   LAYER   1   ROW     2   COL    10   RATE    -83.0208    
 BOUNDARY     26   LAYER   1   ROW     2   COL    11   RATE    -83.0208    
 BOUNDARY     27   LAYER   1   ROW     2   COL    12   RATE    -15.5427    
 BOUNDARY     28   LAYER   1   ROW     2   COL    13   RATE   -0.125920    
 BOUNDARY     29   LAYER   1   ROW     2   COL    14   RATE     0.00000    
 BOUNDARY     30   LAYER   1   ROW     2   COL    15   RATE     0.00000    
 BOUNDARY     31   LAYER   1   ROW     3   COL     1   RATE     0.00000    
 BOUNDARY     32   LAYER   1   ROW     3   COL     2   RATE     0.00000    
 BOUNDARY     33   LAYER   1   ROW     3   COL     3   RATE    -18.6578    
 BOUNDARY     34   LAYER   1   ROW     3   COL     4   RATE    -83.0208    
 BOUNDARY     35   LAYER   1   ROW     3   COL     5   RATE    -83.0208    
 BOUNDARY     36   LAYER   1   ROW     3   COL     6   RATE    -83.0208    
 BOUNDARY     37   LAYER   1   ROW     3   COL     7   RATE    -83.0208    
 BOUNDARY     38   LAYER   1   ROW     3   COL     8   RATE    -83.0208    
 BOUNDARY     39   LAYER   1   ROW     3   COL     9   RATE    -83.0208    
 BOUNDARY     40   LAYER   1   ROW     3   COL    10   RATE    -83.0208    
 BOUNDARY     41   LAYER   1   ROW     3   COL    11   RATE    -83.0208    
 BOUNDARY     42   LAYER   1   ROW     3   COL    12   RATE    -17.9818    
 BOUNDARY     43   LAYER   1   ROW     3   COL    13   RATE    -1.61060    
 BOUNDARY     44   LAYER   1   ROW     3   COL    14   RATE     0.00000    
 BOUNDARY     45   LAYER   1   ROW     3   COL    15   RATE     0.00000    
 BOUNDARY     46   LAYER   1   ROW     4   COL     1   RATE     0.00000    
 BOUNDARY     47   LAYER   1   ROW     4   COL     2   RATE    -2.50305    
 BOUNDARY     48   LAYER   1   ROW     4   COL     3   RATE    -21.8730    
 BOUNDARY     49   LAYER   1   ROW     4   COL     4   RATE    -83.0208    
 BOUNDARY     50   LAYER   1   ROW     4   COL     5   RATE    -83.0208    
 BOUNDARY     51   LAYER   1   ROW     4   COL     6   RATE    -83.0208    
 BOUNDARY     52   LAYER   1   ROW     4   COL     7   RATE    -83.0208    
 BOUNDARY     53   LAYER   1   ROW     4   COL     8   RATE    -83.0208    
 BOUNDARY     54   LAYER   1   ROW     4   COL     9   RATE    -83.0208    
 BOUNDARY     55   LAYER   1   ROW     4   COL    10   RATE    -83.0208    
 BOUNDARY     56   LAYER   1   ROW     4   COL    11   RATE    -83.0208    
 BOUNDARY     57   LAYER   1   ROW     4   COL    12   RATE    -20.3092    
 BOUNDARY     58   LAYER   1   ROW     4   COL    13   RATE    -2.82474    
 BOUNDARY     59   LAYER   1   ROW     4   COL    14   RATE     0.00000    
 BOUNDARY     60   LAYER   1   ROW     4   COL    15   RATE     0.00000    
 BOUNDARY     61   LAYER   1   ROW     5   COL     1   RATE     0.00000    
 BOUNDARY     62   LAYER   1   ROW     5   COL     2   RATE    -4.97311    
 BOUNDARY     63   LAYER   1   ROW     5   COL     3   RATE    -26.3784    
 BOUNDARY     64   LAYER   1   ROW     5   COL     4   RATE    -83.0208    
 BOUNDARY     65   LAYER   1   ROW     5   COL     5   RATE    -83.0208    
 BOUNDARY     66   LAYER   1   ROW     5   COL     6   RATE    -83.0208    
 BOUNDARY     67   LAYER   1   ROW     5   COL     7   RATE    -83.0208    
 BOUNDARY     68   LAYER   1   ROW     5   COL     8   RATE    -83.0208    
 BOUNDARY     69   LAYER   1   ROW     5   COL     9   RATE    -83.0208    
 BOUNDARY     70   LAYER   1   ROW     5   COL    10   RATE    -83.0208    
 BOUNDARY     71   LAYER   1   ROW     5   COL    11   RATE    -83.0208    
 BOUNDARY     72   LAYER   1   ROW     5   COL    12   RATE    -21.9196    
 BOUNDARY     73   LAYER   1   ROW     5   COL    13   RATE    -3.57717    
 BOUNDARY     74   LAYER   1   ROW     5   COL    14   RATE     0.00000    
 BOUNDARY     75   LAYER   1   ROW     5   COL    15   RATE     0.00000    
 BOUNDARY     76   LAYER   1   ROW     6   COL     1   RATE     0.00000    
 BOUNDARY     77   LAYER   1   ROW     6   COL     2   RATE    -3.78612    
 BOUNDARY     78   LAYER   1   ROW     6   COL     3   RATE    -29.6096    
 BOUNDARY     79   LAYER   1   ROW     6   COL     4   RATE    -83.0208    
 BOUNDARY     80   LAYER   1   ROW     6   COL     5   RATE    -83.0208    
 BOUNDARY     81   LAYER   1   ROW     6   COL     6   RATE    -83.0208    
 BOUNDARY     82   LAYER   1   ROW     6   COL     7   RATE    -83.0208    
 BOUNDARY     83   LAYER   1   ROW     6   COL     8   RATE    -83.0208    
 BOUNDARY     84   LAYER   1   ROW     6   COL     9   RATE    -83.0208    
 BOUNDARY     85   LAYER   1   ROW     6   COL    10   RATE    -83.0208    
 BOUNDARY     86   LAYER   1   ROW     6   COL    11   RATE    -83.0208    
 BOUNDARY     87   LAYER   1   ROW     6   COL    12   RATE    -22.4595    
 BOUNDARY     88   LAYER   1   ROW     6   COL    13   RATE    -3.54272    
 BOUNDARY     89   LAYER   1   ROW     6   COL    14   RATE     0.00000    
 BOUNDARY     90   LAYER   1   ROW     6   COL    15   RATE     0.00000    
 BOUNDARY     91   LAYER   1   ROW     7   COL     1   RATE     0.00000    
 BOUNDARY     92   LAYER   1   ROW     7   COL     2   RATE   -0.882094    
 BOUNDARY     93   LAYER   1   ROW     7   COL     3   RATE    -35.3979    
 BOUNDARY     94   LAYER   1   ROW     7   COL     4   RATE    -83.0208    
 BOUNDARY     95   LAYER   1   ROW     7   COL     5   RATE    -83.0208    
 BOUNDARY     96   LAYER   1   ROW     7   COL     6   RATE    -83.0208    
 BOUNDARY     97   LAYER   1   ROW     7   COL     7   RATE    -83.0208    
 BOUNDARY     98   LAYER   1   ROW     7   COL     8   RATE    -83.0208    
 BOUNDARY     99   LAYER   1   ROW     7   COL     9   RATE    -83.0208    
 BOUNDARY    100   LAYER   1   ROW     7   COL    10   RATE    -83.0208    
 BOUNDARY    101   LAYER   1   ROW     7   COL    11   RATE    -83.0208    
 BOUNDARY    102   LAYER   1   ROW     7   COL    12   RATE    -22.3259    
 BOUNDARY    103   LAYER   1   ROW     7   COL    13   RATE    -2.93663    
 BOUNDARY    104   LAYER   1   ROW     7   COL    14   RATE     0.00000    
 BOUNDARY    105   LAYER   1   ROW     7   COL    15   RATE     0.00000    
 BOUNDARY    106   LAYER   1   ROW     8   COL     1   RATE     0.00000    
 BOUNDARY    107   LAYER   1   ROW     8   COL     2   RATE    -9.50739    
 BOUNDARY    108   LAYER   1   ROW     8   COL     3   RATE    -83.0208    
 BOUNDARY    109   LAYER   1   ROW     8   COL     4   RATE    -83.0208    
 BOUNDARY    110   LAYER   1   ROW     8   COL     5   RATE    -83.0208    
 BOUNDARY    111   LAYER   1   ROW     8   COL     6   RATE    -83.0208    
 BOUNDARY    112   LAYER   1   ROW     8   COL     7   RATE    -83.0208    
 BOUNDARY    113   LAYER   1   ROW     8   COL     8   RATE    -83.0208    
 BOUNDARY    114   LAYER   1   ROW     8   COL     9   RATE    -83.0208    
 BOUNDARY    115   LAYER   1   ROW     8   COL    10   RATE    -83.0208    
 BOUNDARY    116   LAYER   1   ROW     8   COL    11   RATE    -83.0208    
 BOUNDARY    117   LAYER   1   ROW     8   COL    12   RATE    -22.6492    
 BOUNDARY    118   LAYER   1   ROW     8   COL    13   RATE    -2.94127    
 BOUNDARY    119   LAYER   1   ROW     8   COL    14   RATE     0.00000    
 BOUNDARY    120   LAYER   1   ROW     8   COL    15   RATE     0.00000    
 BOUNDARY    121   LAYER   1   ROW     9   COL     1   RATE    -15.8061    
 BOUNDARY    122   LAYER   1   ROW     9   COL     2   RATE    -51.3361    
 BOUNDARY    123   LAYER   1   ROW     9   COL     3   RATE    -83.0208    
 BOUNDARY    124   LAYER   1   ROW     9   COL     4   RATE    -83.0208    
 BOUNDARY    125   LAYER   1   ROW     9   COL     5   RATE    -83.0208    
 BOUNDARY    126   LAYER   1   ROW     9   COL     6   RATE    -83.0208    
 BOUNDARY    127   LAYER   1   ROW     9   COL     7   RATE    -83.0208    
 BOUNDARY    128   LAYER   1   ROW     9   COL     8   RATE    -83.0208    
 BOUNDARY    129   LAYER   1   ROW     9   COL     9   RATE    -83.0208    
 BOUNDARY    130   LAYER   1   ROW     9   COL    10   RATE    -83.0208    
 BOUNDARY    131   LAYER   1   ROW     9   COL    11   RATE    -83.0208    
 BOUNDARY    132   LAYER   1   ROW     9   COL    12   RATE    -23.5632    
 BOUNDARY    133   LAYER   1   ROW     9   COL    13   RATE    -3.62625    
 BOUNDARY    134   LAYER   1   ROW     9   COL    14   RATE     0.00000    
 BOUNDARY    135   LAYER   1   ROW     9   COL    15   RATE     0.00000    
 BOUNDARY    136   LAYER   1   ROW    10   COL     1   RATE    -58.1931    
 BOUNDARY    137   LAYER   1   ROW    10   COL     2   RATE    -83.0208    
 BOUNDARY    138   LAYER   1   ROW    10   COL     3   RATE    -83.0208    
 BOUNDARY    139   LAYER   1   ROW    10   COL     4   RATE    -83.0208    
 BOUNDARY    140   LAYER   1   ROW    10   COL     5   RATE    -83.0208    
 BOUNDARY    141   LAYER   1   ROW    10   COL     6   RATE    -83.0208    
 BOUNDARY    142   LAYER   1   ROW    10   COL     7   RATE    -83.0208    
 BOUNDARY    143   LAYER   1   ROW    10   COL     8   RATE    -83.0208    
 BOUNDARY    144   LAYER   1   ROW    10   COL     9   RATE    -83.0208    
 BOUNDARY    145   LAYER   1   ROW    10   COL    10   RATE    -83.0208    
 BOUNDARY    146   LAYER   1   ROW    10   COL    11   RATE    -83.0208    
 BOUNDARY    147   LAYER   1   ROW    10   COL    12   RATE    -24.2248    
 BOUNDARY    148   LAYER   1   ROW    10   COL    13   RATE    -4.06556    
 BOUNDARY    149   LAYER   1   ROW    10   COL    14   RATE     0.00000    
 BOUNDARY    150   LAYER   1   ROW    10   COL    15   RATE     0.00000    

 HEAD WILL BE SAVED ON UNIT 1017 AT END OF TIME STEP    7, STRESS PERIOD    3
WEL   no.    2 value from time series:   0.0000     for time:  39.00     to  40.00    
WEL   no.    3 value from time series:   0.0000     for time:  39.00     to  40.00    
RIV   no.    1 value from time series:   101.00     for time:  39.00     to  40.00    
RIV   no.    2 value from time series:   101.00     for time:  39.00     to  40.00    
RIV   no.    3 value from time series:   111.50     for time:  39.00     to  40.00    
RIV   no.    4 value from time series:   111.50     for time:  39.00     to  40.00    
RIV   no.    5 value from time series:   115.10     for time:  39.00     to  40.00    
RIV   no.    6 value from time series:   115.10     for time:  39.00     to  40.00    
RIV   no.    7 value from time series:   104.00     for time:  39.00     to  40.00    
RIV   no.    8 value from time series:   104.00     for time:  39.00     to  40.00    
RIV   no.    9 value from time series:   113.50     for time:  39.00     to  40.00    
RIV   no.   10 value from time series:   113.50     for time:  39.00     to  40.00    
WEL   no.    2 value from time series:   0.0000     for time:  39.00     to  40.00    
WEL   no.    3 value from time series:   0.0000     for time:  39.00     to  40.00    
RIV   no.    1 value from time series:   101.00     for time:  39.00     to  40.00    
RIV   no.    2 value from time series:   101.00     for time:  39.00     to  40.00    
RIV   no.    3 value from time series:   111.50     for time:  39.00     to  40.00    
RIV   no.    4 value from time series:   111.50     for time:  39.00     to  40.00    
RIV   no.    5 value from time series:   115.10     for time:  39.00     to  40.00    
RIV   no.    6 value from time series:   115.10     for time:  39.00     to  40.00    
RIV   no.    7 value from time series:   104.00     for time:  39.00     to  40.00    
RIV   no.    8 value from time series:   104.00     for time:  39.00     to  40.00    
RIV   no.    9 value from time series:   113.50     for time:  39.00     to  40.00    
RIV   no.   10 value from time series:   113.50     for time:  39.00     to  40.00    

 OUTPUT CONTROL FOR STRESS PERIOD    3   TIME STEP    8
    SAVE BUDGET
    SAVE HEAD
    SAVE HEAD FOR ALL LAYERS
 UBDSV1 SAVING          STORAGE ON UNIT   1016 AT TIME STEP      8, STRESS PERIOD      3
 UBDSV1 SAVING FLOW RIGHT FACE  ON UNIT   1016 AT TIME STEP      8, STRESS PERIOD      3
 UBDSV1 SAVING FLOW FRONT FACE  ON UNIT   1016 AT TIME STEP      8, STRESS PERIOD      3
 UBDSV1 SAVING FLOW LOWER FACE  ON UNIT   1016 AT TIME STEP      8, STRESS PERIOD      3
 UBDSV4 SAVING WELLS NEAR RIVER ON UNIT   1016 AT TIME STEP      8, STRESS PERIOD      3

 WELLS NEAR RIVER   PERIOD  3   STEP  8
 BOUNDARY      1   LAYER   1   ROW     2   COL     3   RATE    -50.0000    
 BOUNDARY      2   LAYER   2   ROW     3   COL     4   RATE     0.00000      WELL_1
 BOUNDARY      3   LAYER   2   ROW     8   COL     4   RATE     0.00000      WELL_2
 UBDSV4 SAVING RIVER            ON UNIT   1016 AT TIME STEP      8, STRESS PERIOD      3

 RIVER              PERIOD  3   STEP  8
 BOUNDARY      1   LAYER   1   ROW     1   COL    15   RATE    -4843.69    
 BOUNDARY      2   LAYER   1   ROW     2   COL    15   RATE    -5951.35      RIV2
 BOUNDARY      3   LAYER   1   ROW     3   COL    15   RATE    -2174.35      RIV3
 BOUNDARY      4   LAYER   1   ROW     4   COL    15   RATE    -3630.82    
 BOUNDARY      5   LAYER   1   ROW     5   COL    15   RATE    -2275.75    
 BOUNDARY      6   LAYER   1   ROW     6   COL    15   RATE    -1632.11    
 BOUNDARY      7   LAYER   1   ROW     7   COL    15   RATE    -6122.30      RIVX
 BOUNDARY      8   LAYER   1   ROW     8   COL    15   RATE    -5953.95      RIVX
 BOUNDARY      9   LAYER   1   ROW     9   COL    15   RATE    -2133.93      RIVX
 BOUNDARY     10   LAYER   1   ROW    10   COL    15   RATE    -3022.89    

 GHB LAKES          PERIOD  3   STEP  8
 BOUNDARY      1   LAYER   1   ROW     3   COL     1   RATE    -14478.5    
 BOUNDARY      2   LAYER   1   ROW     7   COL     1   RATE    -1848.74      GHB2_UPPER
 BOUNDARY      3   LAYER   1   ROW     7   COL     1   RATE    -13237.8      GHB2_LOWER
 UBDSV4 SAVING RECHARGE         ON UNIT   1016 AT TIME STEP      8, STRESS PERIOD      3

 RECHARGE           PERIOD  3   STEP  8
 BOUNDARY      1   LAYER   1   ROW     1   COL     1   RATE     582.292    
 BOUNDARY      2   LAYER   1   ROW     1   COL     2   RATE     582.292    
 BOUNDARY      3   LAYER   1   ROW     1   COL     3   RATE     582.292    
 BOUNDARY      4   LAYER   1   ROW     1   COL     4   RATE     582.292    
 BOUNDARY      5   LAYER   1   ROW     1   COL     5   RATE     582.292    
 BOUNDARY      6   LAYER   1   ROW     1   COL     6   RATE     582.292    
 BOUNDARY      7   LAYER   1   ROW     1   COL     7   RATE     582.292    
 BOUNDARY      8   LAYER   1   ROW     1   COL     8   RATE     582.292    
 BOUNDARY      9   LAYER   1   ROW     1   COL     9   RATE     582.292    
 BOUNDARY     10   LAYER   1   ROW     1   COL    10   RATE     582.292    
 BOUNDARY     11   LAYER   1   ROW     1   COL    11   RATE     582.292    
 BOUNDARY     12   LAYER   1   ROW     1   COL    12   RATE     582.292    
 BOUNDARY     13   LAYER   1   ROW     1   COL    13   RATE     582.292    
 BOUNDARY     14   LAYER   1   ROW     1   COL    14   RATE     582.292    
 BOUNDARY     15   LAYER   1   ROW     1   COL    15   RATE     582.292    
 BOUNDARY     16   LAYER   1   ROW     2   COL     1   RATE     582.292    
 BOUNDARY     17   LAYER   1   ROW     2   COL     2   RATE     582.292    
 BOUNDARY     18   LAYER   1   ROW     2   COL     3   RATE     582.292    
 BOUNDARY     19   LAYER   1   ROW     2   COL     4   RATE     582.292    
 BOUNDARY     20   LAYER   1   ROW     2   COL     5   RATE     582.292    
 BOUNDARY     21   LAYER   1   ROW     2   COL     6   RATE     582.292    
 BOUNDARY     22   LAYER   1   ROW     2   COL     7   RATE     582.292    
 BOUNDARY     23   LAYER   1   ROW     2   COL     8   RATE     582.292    
 BOUNDARY     24   LAYER   1   ROW     2   COL     9   RATE     582.292    
 BOUNDARY     25   LAYER   1   ROW     2   COL    10   RATE     582.292    
 BOUNDARY     26   LAYER   1   ROW     2   COL    11   RATE     582.292    
 BOUNDARY     27   LAYER   1   ROW     2   COL    12   RATE     582.292    
 BOUNDARY     28   LAYER   1   ROW     2   COL    13   RATE     582.292    
 BOUNDARY     29   LAYER   1   ROW     2   COL    14   RATE     582.292    
 BOUNDARY     30   LAYER   1   ROW     2   COL    15   RATE     582.292    
 BOUNDARY     31   LAYER   1   ROW     3   COL     1   RATE     582.292    
 BOUNDARY     32   LAYER   1   ROW     3   COL     2   RATE     582.292    
 BOUNDARY     33   LAYER   1   ROW     3   COL     3   RATE     582.292    
 BOUNDARY     34   LAYER   1   ROW     3   COL     4   RATE     582.292    
 BOUNDARY     35   LAYER   1   ROW     3   COL     5   RATE     582.292    
 BOUNDARY     36   LAYER   1   ROW     3   COL     6   RATE     582.292    
 BOUNDARY     37   LAYER   1   ROW     3   COL     7   RATE     582.292    
 BOUNDARY     38   LAYER   1   ROW     3   COL     8   RATE     582.292    
 BOUNDARY     39   LAYER   1   ROW     3   COL     9   RATE     582.292    
 BOUNDARY     40   LAYER   1   ROW     3   COL    10   RATE     582.292    
 BOUNDARY     41   LAYER   1   ROW     3   COL    11   RATE     582.292    
 BOUNDARY     42   LAYER   1   ROW     3   COL    12   RATE     582.292    
 BOUNDARY     43   LAYER   1   ROW     3   COL    13   RATE     582.292    
 BOUNDARY     44   LAYER   1   ROW     3   COL    14   RATE     582.292    
 BOUNDARY     45   LAYER   1   ROW     3   COL    15   RATE     582.292    
 BOUNDARY     46   LAYER   1   ROW     4   COL     1   RATE     582.292    
 BOUNDARY     47   LAYER   1   ROW     4   COL     2   RATE     582.292    
 BOUNDARY     48   LAYER   1   ROW     4   COL     3   RATE     582.292    
 BOUNDARY     49   LAYER   1   ROW     4   COL     4   RATE     582.292    
 BOUNDARY     50   LAYER   1   ROW     4   COL     5   RATE     582.292    
 BOUNDARY     51   LAYER   1   ROW     4   COL     6   RATE     582.292    
 BOUNDARY     52   LAYER   1   ROW     4   COL     7   RATE     582.292    
 BOUNDARY     53   LAYER   1   ROW     4   COL     8   RATE     582.292    
 BOUNDARY     54   LAYER   1   ROW     4   COL     9   RATE     582.292    
 BOUNDARY     55   LAYER   1   ROW     4   COL    10   RATE     582.292    
 BOUNDARY     56   LAYER   1   ROW     4   COL    11   RATE     582.292    
 BOUNDARY     57   LAYER   1   ROW     4   COL    12   RATE     582.292    
 BOUNDARY     58   LAYER   1   ROW     4   COL    13   RATE     582.292    
 BOUNDARY     59   LAYER   1   ROW     4   COL    14   RATE     582.292    
 BOUNDARY     60   LAYER   1   ROW     4   COL    15   RATE     582.292    
 BOUNDARY     61   LAYER   1   ROW     5   COL     1   RATE     582.292    
 BOUNDARY     62   LAYER   1   ROW     5   COL     2   RATE     582.292    
 BOUNDARY     63   LAYER   1   ROW     5   COL     3   RATE     582.292    
 BOUNDARY     64   LAYER   1   ROW     5   COL     4   RATE     582.292    
 BOUNDARY     65   LAYER   1   ROW     5   COL     5   RATE     582.292    
 BOUNDARY     66   LAYER   1   ROW     5   COL     6   RATE     582.292    
 BOUNDARY     67   LAYER   1   ROW     5   COL     7   RATE     582.292    
 BOUNDARY     68   LAYER   1   ROW     5   COL     8   RATE     582.292    
 BOUNDARY     69   LAYER   1   ROW     5   COL     9   RATE     582.292    
 BOUNDARY     70   LAYER   1   ROW     5   COL    10   RATE     582.292    
 BOUNDARY     71   LAYER   1   ROW     5   COL    11   RATE     582.292    
 BOUNDARY     72   LAYER   1   ROW     5   COL    12   RATE     582.292    
 BOUNDARY     73   LAYER   1   ROW     5   COL    13   RATE     582.292    
 BOUNDARY     74   LAYER   1   ROW     5   COL    14   RATE     582.292    
 BOUNDARY     75   LAYER   1   ROW     5   COL    15   RATE     582.292    
 BOUNDARY     76   LAYER   1   ROW     6   COL     1   RATE     582.292    
 BOUNDARY     77   LAYER   1   ROW     6   COL     2   RATE     582.292    
 BOUNDARY     78   LAYER   1   ROW     6   COL     3   RATE     582.292    
 BOUNDARY     79   LAYER   1   ROW     6   COL     4   RATE     582.292    
 BOUNDARY     80   LAYER   1   ROW     6   COL     5   RATE     582.292    
 BOUNDARY     81   LAYER   1   ROW     6   COL     6   RATE     582.292    
 BOUNDARY     82   LAYER   1   ROW     6   COL     7   RATE     582.292    
 BOUNDARY     83   LAYER   1   ROW     6   COL     8   RATE     582.292    
 BOUNDARY     84   LAYER   1   ROW     6   COL     9   RATE     582.292    
 BOUNDARY     85   LAYER   1   ROW     6   COL    10   RATE     582.292    
 BOUNDARY     86   LAYER   1   ROW     6   COL    11   RATE     582.292    
 BOUNDARY     87   LAYER   1   ROW     6   COL    12   RATE     582.292    
 BOUNDARY     88   LAYER   1   ROW     6   COL    13   RATE     582.292    
 BOUNDARY     89   LAYER   1   ROW     6   COL    14   RATE     582.292    
 BOUNDARY     90   LAYER   1   ROW     6   COL    15   RATE     582.292    
 BOUNDARY     91   LAYER   1   ROW     7   COL     1   RATE     582.292    
 BOUNDARY     92   LAYER   1   ROW     7   COL     2   RATE     582.292    
 BOUNDARY     93   LAYER   1   ROW     7   COL     3   RATE     582.292    
 BOUNDARY     94   LAYER   1   ROW     7   COL     4   RATE     582.292    
 BOUNDARY     95   LAYER   1   ROW     7   COL     5   RATE     582.292    
 BOUNDARY     96   LAYER   1   ROW     7   COL     6   RATE     582.292    
 BOUNDARY     97   LAYER   1   ROW     7   COL     7   RATE     582.292    
 BOUNDARY     98   LAYER   1   ROW     7   COL     8   RATE     582.292    
 BOUNDARY     99   LAYER   1   ROW     7   COL     9   RATE     582.292    
 BOUNDARY    100   LAYER   1   ROW     7   COL    10   RATE     582.292    
 BOUNDARY    101   LAYER   1   ROW     7   COL    11   RATE     582.292    
 BOUNDARY    102   LAYER   1   ROW     7   COL    12   RATE     582.292    
 BOUNDARY    103   LAYER   1   ROW     7   COL    13   RATE     582.292    
 BOUNDARY    104   LAYER   1   ROW     7   COL    14   RATE     582.292    
 BOUNDARY    105   LAYER   1   ROW     7   COL    15   RATE     582.292    
 BOUNDARY    106   LAYER   1   ROW     8   COL     1   RATE     582.292    
 BOUNDARY    107   LAYER   1   ROW     8   COL     2   RATE     582.292    
 BOUNDARY    108   LAYER   1   ROW     8   COL     3   RATE     582.292    
 BOUNDARY    109   LAYER   1   ROW     8   COL     4   RATE     582.292    
 BOUNDARY    110   LAYER   1   ROW     8   COL     5   RATE     582.292    
 BOUNDARY    111   LAYER   1   ROW     8   COL     6   RATE     582.292    
 BOUNDARY    112   LAYER   1   ROW     8   COL     7   RATE     582.292    
 BOUNDARY    113   LAYER   1   ROW     8   COL     8   RATE     582.292    
 BOUNDARY    114   LAYER   1   ROW     8   COL     9   RATE     582.292    
 BOUNDARY    115   LAYER   1   ROW     8   COL    10   RATE     582.292    
 BOUNDARY    116   LAYER   1   ROW     8   COL    11   RATE     582.292    
 BOUNDARY    117   LAYER   1   ROW     8   COL    12   RATE     582.292    
 BOUNDARY    118   LAYER   1   ROW     8   COL    13   RATE     582.292    
 BOUNDARY    119   LAYER   1   ROW     8   COL    14   RATE     582.292    
 BOUNDARY    120   LAYER   1   ROW     8   COL    15   RATE     582.292    
 BOUNDARY    121   LAYER   1   ROW     9   COL     1   RATE     582.292    
 BOUNDARY    122   LAYER   1   ROW     9   COL     2   RATE     582.292    
 BOUNDARY    123   LAYER   1   ROW     9   COL     3   RATE     582.292    
 BOUNDARY    124   LAYER   1   ROW     9   COL     4   RATE     582.292    
 BOUNDARY    125   LAYER   1   ROW     9   COL     5   RATE     582.292    
 BOUNDARY    126   LAYER   1   ROW     9   COL     6   RATE     582.292    
 BOUNDARY    127   LAYER   1   ROW     9   COL     7   RATE     582.292    
 BOUNDARY    128   LAYER   1   ROW     9   COL     8   RATE     582.292    
 BOUNDARY    129   LAYER   1   ROW     9   COL     9   RATE     582.292    
 BOUNDARY    130   LAYER   1   ROW     9   COL    10   RATE     582.292    
 BOUNDARY    131   LAYER   1   ROW     9   COL    11   RATE     582.292    
 BOUNDARY    132   LAYER   1   ROW     9   COL    12   RATE     582.292    
 BOUNDARY    133   LAYER   1   ROW     9   COL    13   RATE     582.292    
 BOUNDARY    134   LAYER   1   ROW     9   COL    14   RATE     582.292    
 BOUNDARY    135   LAYER   1   ROW     9   COL    15   RATE     582.292    
 BOUNDARY    136   LAYER   1   ROW    10   COL     1   RATE     582.292    
 BOUNDARY    137   LAYER   1   ROW    10   COL     2   RATE     582.292    
 BOUNDARY    138   LAYER   1   ROW    10   COL     3   RATE     582.292    
 BOUNDARY    139   LAYER   1   ROW    10   COL     4   RATE     582.292    
 BOUNDARY    140   LAYER   1   ROW    10   COL     5   RATE     582.292    
 BOUNDARY    141   LAYER   1   ROW    10   COL     6   RATE     582.292    
 BOUNDARY    142   LAYER   1   ROW    10   COL     7   RATE     582.292    
 BOUNDARY    143   LAYER   1   ROW    10   COL     8   RATE     582.292    
 BOUNDARY    144   LAYER   1   ROW    10   COL     9   RATE     582.292    
 BOUNDARY    145   LAYER   1   ROW    10   COL    10   RATE     582.292    
 BOUNDARY    146   LAYER   1   ROW    10   COL    11   RATE     582.292    
 BOUNDARY    147   LAYER   1   ROW    10   COL    12   RATE     582.292    
 BOUNDARY    148   LAYER   1   ROW    10   COL    13   RATE     582.292    
 BOUNDARY    149   LAYER   1   ROW    10   COL    14   RATE     582.292    
 BOUNDARY    150   LAYER   1   ROW    10   COL    15   RATE     582.292    
 UBDSV4 SAVING ET SEGS          ON UNIT   1016 AT TIME STEP      8, STRESS PERIOD      3

 ET SEGS            PERIOD  3   STEP  8
 BOUNDARY      1   LAYER   1   ROW     1   COL     1   RATE    -1.82732    
 BOUNDARY      2   LAYER   1   ROW     1   COL     2   RATE    -7.53678    
 BOUNDARY      3   LAYER   1   ROW     1   COL     3   RATE    -41.9280    
 BOUNDARY      4   LAYER   1   ROW     1   COL     4   RATE    -83.2292    
 BOUNDARY      5   LAYER   1   ROW     1   COL     5   RATE    -83.2292    
 BOUNDARY      6   LAYER   1   ROW     1   COL     6   RATE    -83.2292    
 BOUNDARY      7   LAYER   1   ROW     1   COL     7   RATE    -83.2292    
 BOUNDARY      8   LAYER   1   ROW     1   COL     8   RATE    -83.2292    
 BOUNDARY      9   LAYER   1   ROW     1   COL     9   RATE    -83.2292    
 BOUNDARY     10   LAYER   1   ROW     1   COL    10   RATE    -83.2292    
 BOUNDARY     11   LAYER   1   ROW     1   COL    11   RATE    -83.2292    
 BOUNDARY     12   LAYER   1   ROW     1   COL    12   RATE    -14.1521    
 BOUNDARY     13   LAYER   1   ROW     1   COL    13   RATE     0.00000    
 BOUNDARY     14   LAYER   1   ROW     1   COL    14   RATE     0.00000    
 BOUNDARY     15   LAYER   1   ROW     1   COL    15   RATE     0.00000    
 BOUNDARY     16   LAYER   1   ROW     2   COL     1   RATE     0.00000    
 BOUNDARY     17   LAYER   1   ROW     2   COL     2   RATE    -3.77464    
 BOUNDARY     18   LAYER   1   ROW     2   COL     3   RATE    -23.6488    
 BOUNDARY     19   LAYER   1   ROW     2   COL     4   RATE    -83.2292    
 BOUNDARY     20   LAYER   1   ROW     2   COL     5   RATE    -83.2292    
 BOUNDARY     21   LAYER   1   ROW     2   COL     6   RATE    -83.2292    
 BOUNDARY     22   LAYER   1   ROW     2   COL     7   RATE    -83.2292    
 BOUNDARY     23   LAYER   1   ROW     2   COL     8   RATE    -83.2292    
 BOUNDARY     24   LAYER   1   ROW     2   COL     9   RATE    -83.2292    
 BOUNDARY     25   LAYER   1   ROW     2   COL    10   RATE    -83.2292    
 BOUNDARY     26   LAYER   1   ROW     2   COL    11   RATE    -83.2292    
 BOUNDARY     27   LAYER   1   ROW     2   COL    12   RATE    -15.6017    
 BOUNDARY     28   LAYER   1   ROW     2   COL    13   RATE   -0.132432    
 BOUNDARY     29   LAYER   1   ROW     2   COL    14   RATE     0.00000    
 BOUNDARY     30   LAYER   1   ROW     2   COL    15   RATE     0.00000    
 BOUNDARY     31   LAYER   1   ROW     3   COL     1   RATE     0.00000    
 BOUNDARY     32   LAYER   1   ROW     3   COL     2   RATE     0.00000    
 BOUNDARY     33   LAYER   1   ROW     3   COL     3   RATE    -18.7231    
 BOUNDARY     34   LAYER   1   ROW     3   COL     4   RATE    -83.2292    
 BOUNDARY     35   LAYER   1   ROW     3   COL     5   RATE    -83.2292    
 BOUNDARY     36   LAYER   1   ROW     3   COL     6   RATE    -83.2292    
 BOUNDARY     37   LAYER   1   ROW     3   COL     7   RATE    -83.2292    
 BOUNDARY     38   LAYER   1   ROW     3   COL     8   RATE    -83.2292    
 BOUNDARY     39   LAYER   1   ROW     3   COL     9   RATE    -83.2292    
 BOUNDARY     40   LAYER   1   ROW     3   COL    10   RATE    -83.2292    
 BOUNDARY     41   LAYER   1   ROW     3   COL    11   RATE    -83.2292    
 BOUNDARY     42   LAYER   1   ROW     3   COL    12   RATE    -18.0470    
 BOUNDARY     43   LAYER   1   ROW     3   COL    13   RATE    -1.62095    
 BOUNDARY     44   LAYER   1   ROW     3   COL    14   RATE     0.00000    
 BOUNDARY     45   LAYER   1   ROW     3   COL    15   RATE     0.00000    
 BOUNDARY     46   LAYER   1   ROW     4   COL     1   RATE     0.00000    
 BOUNDARY     47   LAYER   1   ROW     4   COL     2   RATE    -2.51478    
 BOUNDARY     48   LAYER   1   ROW     4   COL     3   RATE    -21.9472    
 BOUNDARY     49   LAYER   1   ROW     4   COL     4   RATE    -83.2292    
 BOUNDARY     50   LAYER   1   ROW     4   COL     5   RATE    -83.2292    
 BOUNDARY     51   LAYER   1   ROW     4   COL     6   RATE    -83.2292    
 BOUNDARY     52   LAYER   1   ROW     4   COL     7   RATE    -83.2292    
 BOUNDARY     53   LAYER   1   ROW     4   COL     8   RATE    -83.2292    
 BOUNDARY     54   LAYER   1   ROW     4   COL     9   RATE    -83.2292    
 BOUNDARY     55   LAYER   1   ROW     4   COL    10   RATE    -83.2292    
 BOUNDARY     56   LAYER   1   ROW     4   COL    11   RATE    -83.2292    
 BOUNDARY     57   LAYER   1   ROW     4   COL    12   RATE    -20.3801    
 BOUNDARY     58   LAYER   1   ROW     4   COL    13   RATE    -2.83795    
 BOUNDARY     59   LAYER   1   ROW     4   COL    14   RATE     0.00000    
 BOUNDARY     60   LAYER   1   ROW     4   COL    15   RATE     0.00000    
 BOUNDARY     61   LAYER   1   ROW     5   COL     1   RATE     0.00000    
 BOUNDARY     62   LAYER   1   ROW     5   COL     2   RATE    -4.99108    
 BOUNDARY     63   LAYER   1   ROW     5   COL     3   RATE    -26.5456    
 BOUNDARY     64   LAYER   1   ROW     5   COL     4   RATE    -83.2292    
 BOUNDARY     65   LAYER   1   ROW     5   COL     5   RATE    -83.2292    
 BOUNDARY     66   LAYER   1   ROW     5   COL     6   RATE    -83.2292    
 BOUNDARY     67   LAYER   1   ROW     5   COL     7   RATE    -83.2292    
 BOUNDARY     68   LAYER   1   ROW     5   COL     8   RATE    -83.2292    
 BOUNDARY     69   LAYER   1   ROW     5   COL     9   RATE    -83.2292    
 BOUNDARY     70   LAYER   1   ROW     5   COL    10   RATE    -83.2292    
 BOUNDARY     71   LAYER   1   ROW     5   COL    11   RATE    -83.2292    
 BOUNDARY     72   LAYER   1   ROW     5   COL    12   RATE    -21.9943    
 BOUNDARY     73   LAYER   1   ROW     5   COL    13   RATE    -3.59183    
 BOUNDARY     74   LAYER   1   ROW     5   COL    14   RATE     0.00000    
 BOUNDARY     75   LAYER   1   ROW     5   COL    15   RATE     0.00000    
 BOUNDARY     76   LAYER   1   ROW     6   COL     1   RATE     0.00000    
 BOUNDARY     77   LAYER   1   ROW     6   COL     2   RATE    -3.80104    
 BOUNDARY     78   LAYER   1   ROW     6   COL     3   RATE    -29.7849    
 BOUNDARY     79   LAYER   1   ROW     6   COL     4   RATE    -83.2292    
 BOUNDARY     80   LAYER   1   ROW     6   COL     5   RATE    -83.2292    
 BOUNDARY     81   LAYER   1   ROW     6   COL     6   RATE    -83.2292    
 BOUNDARY     82   LAYER   1   ROW     6   COL     7   RATE    -83.2292    
 BOUNDARY     83   LAYER   1   ROW     6   COL     8   RATE    -83.2292    
 BOUNDARY     84   LAYER   1   ROW     6   COL     9   RATE    -83.2292    
 BOUNDARY     85   LAYER   1   ROW     6   COL    10   RATE    -83.2292    
 BOUNDARY     86   LAYER   1   ROW     6   COL    11   RATE    -83.2292    
 BOUNDARY     87   LAYER   1   ROW     6   COL    12   RATE    -22.5355    
 BOUNDARY     88   LAYER   1   ROW     6   COL    13   RATE    -3.55719    
 BOUNDARY     89   LAYER   1   ROW     6   COL    14   RATE     0.00000    
 BOUNDARY     90   LAYER   1   ROW     6   COL    15   RATE     0.00000    
 BOUNDARY     91   LAYER   1   ROW     7   COL     1   RATE     0.00000    
 BOUNDARY     92   LAYER   1   ROW     7   COL     2   RATE   -0.889479    
 BOUNDARY     93   LAYER   1   ROW     7   COL     3   RATE    -35.5888    
 BOUNDARY     94   LAYER   1   ROW     7   COL     4   RATE    -83.2292    
 BOUNDARY     95   LAYER   1   ROW     7   COL     5   RATE    -83.2292    
 BOUNDARY     96   LAYER   1   ROW     7   COL     6   RATE    -83.2292    
 BOUNDARY     97   LAYER   1   ROW     7   COL     7   RATE    -83.2292    
 BOUNDARY     98   LAYER   1   ROW     7   COL     8   RATE    -83.2292    
 BOUNDARY     99   LAYER   1   ROW     7   COL     9   RATE    -83.2292    
 BOUNDARY    100   LAYER   1   ROW     7   COL    10   RATE    -83.2292    
 BOUNDARY    101   LAYER   1   ROW     7   COL    11   RATE    -83.2292    
 BOUNDARY    102   LAYER   1   ROW     7   COL    12   RATE    -22.4018    
 BOUNDARY    103   LAYER   1   ROW     7   COL    13   RATE    -2.94981    
 BOUNDARY    104   LAYER   1   ROW     7   COL    14   RATE     0.00000    
 BOUNDARY    105   LAYER   1   ROW     7   COL    15   RATE     0.00000    
 BOUNDARY    106   LAYER   1   ROW     8   COL     1   RATE     0.00000    
 BOUNDARY    107   LAYER   1   ROW     8   COL     2   RATE    -9.55014    
 BOUNDARY    108   LAYER   1   ROW     8   COL     3   RATE    -83.2292    
 BOUNDARY    109   LAYER   1   ROW     8   COL     4   RATE    -83.2292    
 BOUNDARY    110   LAYER   1   ROW     8   COL     5   RATE    -83.2292    
 BOUNDARY    111   LAYER   1   ROW     8   COL     6   RATE    -83.2292    
 BOUNDARY    112   LAYER   1   ROW     8   COL     7   RATE    -83.2292    
 BOUNDARY    113   LAYER   1   ROW     8   COL     8   RATE    -83.2292    
 BOUNDARY    114   LAYER   1   ROW     8   COL     9   RATE    -83.2292    
 BOUNDARY    115   LAYER   1   ROW     8   COL    10   RATE    -83.2292    
 BOUNDARY    116   LAYER   1   ROW     8   COL    11   RATE    -83.2292    
 BOUNDARY    117   LAYER   1   ROW     8   COL    12   RATE    -22.7262    
 BOUNDARY    118   LAYER   1   ROW     8   COL    13   RATE    -2.95481    
 BOUNDARY    119   LAYER   1   ROW     8   COL    14   RATE     0.00000    
 BOUNDARY    120   LAYER   1   ROW     8   COL    15   RATE     0.00000    
 BOUNDARY    121   LAYER   1   ROW     9   COL     1   RATE    -15.8649    
 BOUNDARY    122   LAYER   1   ROW     9   COL     2   RATE    -51.5684    
 BOUNDARY    123   LAYER   1   ROW     9   COL     3   RATE    -83.2292    
 BOUNDARY    124   LAYER   1   ROW     9   COL     4   RATE    -83.2292    
 BOUNDARY    125   LAYER   1   ROW     9   COL     5   RATE    -83.2292    
 BOUNDARY    126   LAYER   1   ROW     9   COL     6   RATE    -83.2292    
 BOUNDARY    127   LAYER   1   ROW     9   COL     7   RATE    -83.2292    
 BOUNDARY    128   LAYER   1   ROW     9   COL     8   RATE    -83.2292    
 BOUNDARY    129   LAYER   1   ROW     9   COL     9   RATE    -83.2292    
 BOUNDARY    130   LAYER   1   ROW     9   COL    10   RATE    -83.2292    
 BOUNDARY    131   LAYER   1   ROW     9   COL    11   RATE    -83.2292    
 BOUNDARY    132   LAYER   1   ROW     9   COL    12   RATE    -23.6428    
 BOUNDARY    133   LAYER   1   ROW     9   COL    13   RATE    -3.64207    
 BOUNDARY    134   LAYER   1   ROW     9   COL    14   RATE     0.00000    
 BOUNDARY    135   LAYER   1   ROW     9   COL    15   RATE     0.00000    
 BOUNDARY    136   LAYER   1   ROW    10   COL     1   RATE    -58.4424    
 BOUNDARY    137   LAYER   1   ROW    10   COL     2   RATE    -83.2292    
 BOUNDARY    138   LAYER   1   ROW    10   COL     3   RATE    -83.2292    
 BOUNDARY    139   LAYER   1   ROW    10   COL     4   RATE    -83.2292    
 BOUNDARY    140   LAYER   1   ROW    10   COL     5   RATE    -83.2292    
 BOUNDARY    141   LAYER   1   ROW    10   COL     6   RATE    -83.2292    
 BOUNDARY    142   LAYER   1   ROW    10   COL     7   RATE    -83.2292    
 BOUNDARY    143   LAYER   1   ROW    10   COL     8   RATE    -83.2292    
 BOUNDARY    144   LAYER   1   ROW    10   COL     9   RATE    -83.2292    
 BOUNDARY    145   LAYER   1   ROW    10   COL    10   RATE    -83.2292    
 BOUNDARY    146   LAYER   1   ROW    10   COL    11   RATE    -83.2292    
 BOUNDARY    147   LAYER   1   ROW    10   COL    12   RATE    -24.3063    
 BOUNDARY    148   LAYER   1   ROW    10   COL    13   RATE    -4.08272    
 BOUNDARY    149   LAYER   1   ROW    10   COL    14   RATE     0.00000    
 BOUNDARY    150   LAYER   1   ROW    10   COL    15   RATE     0.00000    

 HEAD WILL BE SAVED ON UNIT 1017 AT END OF TIME STEP    8, STRESS PERIOD    3
WEL   no.    2 value from time series:   0.0000     for time:  40.00     to  41.00    
WEL   no.    3 value from time series:   0.0000     for time:  40.00     to  41.00    
RIV   no.    1 value from time series:   101.00     for time:  40.00     to  41.00    
RIV   no.    2 value from time series:   101.00     for time:  40.00     to  41.00    
RIV   no.    3 value from time series:   111.50     for time:  40.00     to  41.00    
RIV   no.    4 value from time series:   111.50     for time:  40.00     to  41.00    
RIV   no.    5 value from time series:   115.10     for time:  40.00     to  41.00    
RIV   no.    6 value from time series:   115.10     for time:  40.00     to  41.00    
RIV   no.    7 value from time series:   104.00     for time:  40.00     to  41.00    
RIV   no.    8 value from time series:   104.00     for time:  40.00     to  41.00    
RIV   no.    9 value from time series:   113.50     for time:  40.00     to  41.00    
RIV   no.   10 value from time series:   113.50     for time:  40.00     to  41.00    
WEL   no.    2 value from time series:   0.0000     for time:  40.00     to  41.00    
WEL   no.    3 value from time series:   0.0000     for time:  40.00     to  41.00    
RIV   no.    1 value from time series:   101.00     for time:  40.00     to  41.00    
RIV   no.    2 value from time series:   101.00     for time:  40.00     to  41.00    
RIV   no.    3 value from time series:   111.50     for time:  40.00     to  41.00    
RIV   no.    4 value from time series:   111.50     for time:  40.00     to  41.00    
RIV   no.    5 value from time series:   115.10     for time:  40.00     to  41.00    
RIV   no.    6 value from time series:   115.10     for time:  40.00     to  41.00    
RIV   no.    7 value from time series:   104.00     for time:  40.00     to  41.00    
RIV   no.    8 value from time series:   104.00     for time:  40.00     to  41.00    
RIV   no.    9 value from time series:   113.50     for time:  40.00     to  41.00    
RIV   no.   10 value from time series:   113.50     for time:  40.00     to  41.00    

 OUTPUT CONTROL FOR STRESS PERIOD    3   TIME STEP    9
    SAVE BUDGET
    SAVE HEAD
    SAVE HEAD FOR ALL LAYERS
 UBDSV1 SAVING          STORAGE ON UNIT   1016 AT TIME STEP      9, STRESS PERIOD      3
 UBDSV1 SAVING FLOW RIGHT FACE  ON UNIT   1016 AT TIME STEP      9, STRESS PERIOD      3
 UBDSV1 SAVING FLOW FRONT FACE  ON UNIT   1016 AT TIME STEP      9, STRESS PERIOD      3
 UBDSV1 SAVING FLOW LOWER FACE  ON UNIT   1016 AT TIME STEP      9, STRESS PERIOD      3
 UBDSV4 SAVING WELLS NEAR RIVER ON UNIT   1016 AT TIME STEP      9, STRESS PERIOD      3

 WELLS NEAR RIVER   PERIOD  3   STEP  9
 BOUNDARY      1   LAYER   1   ROW     2   COL     3   RATE    -50.0000    
 BOUNDARY      2   LAYER   2   ROW     3   COL     4   RATE     0.00000      WELL_1
 BOUNDARY      3   LAYER   2   ROW     8   COL     4   RATE     0.00000      WELL_2
 UBDSV4 SAVING RIVER            ON UNIT   1016 AT TIME STEP      9, STRESS PERIOD      3

 RIVER              PERIOD  3   STEP  9
 BOUNDARY      1   LAYER   1   ROW     1   COL    15   RATE    -4839.64    
 BOUNDARY      2   LAYER   1   ROW     2   COL    15   RATE    -5947.91      RIV2
 BOUNDARY      3   LAYER   1   ROW     3   COL    15   RATE    -2173.50      RIV3
 BOUNDARY      4   LAYER   1   ROW     4   COL    15   RATE    -3630.15    
 BOUNDARY      5   LAYER   1   ROW     5   COL    15   RATE    -2274.86    
 BOUNDARY      6   LAYER   1   ROW     6   COL    15   RATE    -1630.85    
 BOUNDARY      7   LAYER   1   ROW     7   COL    15   RATE    -6120.26      RIVX
 BOUNDARY      8   LAYER   1   ROW     8   COL    15   RATE    -5952.58      RIVX
 BOUNDARY      9   LAYER   1   ROW     9   COL    15   RATE    -2134.09      RIVX
 BOUNDARY     10   LAYER   1   ROW    10   COL    15   RATE    -3023.67    

 GHB LAKES          PERIOD  3   STEP  9
 BOUNDARY      1   LAYER   1   ROW     3   COL     1   RATE    -14481.0    
 BOUNDARY      2   LAYER   1   ROW     7   COL     1   RATE    -1850.33      GHB2_UPPER
 BOUNDARY      3   LAYER   1   ROW     7   COL     1   RATE    -13238.4      GHB2_LOWER
 UBDSV4 SAVING RECHARGE         ON UNIT   1016 AT TIME STEP      9, STRESS PERIOD      3

 RECHARGE           PERIOD  3   STEP  9
 BOUNDARY      1   LAYER   1   ROW     1   COL     1   RATE     584.375    
 BOUNDARY      2   LAYER   1   ROW     1   COL     2   RATE     584.375    
 BOUNDARY      3   LAYER   1   ROW     1   COL     3   RATE     584.375    
 BOUNDARY      4   LAYER   1   ROW     1   COL     4   RATE     584.375    
 BOUNDARY      5   LAYER   1   ROW     1   COL     5   RATE     584.375    
 BOUNDARY      6   LAYER   1   ROW     1   COL     6   RATE     584.375    
 BOUNDARY      7   LAYER   1   ROW     1   COL     7   RATE     584.375    
 BOUNDARY      8   LAYER   1   ROW     1   COL     8   RATE     584.375    
 BOUNDARY      9   LAYER   1   ROW     1   COL     9   RATE     584.375    
 BOUNDARY     10   LAYER   1   ROW     1   COL    10   RATE     584.375    
 BOUNDARY     11   LAYER   1   ROW     1   COL    11   RATE     584.375    
 BOUNDARY     12   LAYER   1   ROW     1   COL    12   RATE     584.375    
 BOUNDARY     13   LAYER   1   ROW     1   COL    13   RATE     584.375    
 BOUNDARY     14   LAYER   1   ROW     1   COL    14   RATE     584.375    
 BOUNDARY     15   LAYER   1   ROW     1   COL    15   RATE     584.375    
 BOUNDARY     16   LAYER   1   ROW     2   COL     1   RATE     584.375    
 BOUNDARY     17   LAYER   1   ROW     2   COL     2   RATE     584.375    
 BOUNDARY     18   LAYER   1   ROW     2   COL     3   RATE     584.375    
 BOUNDARY     19   LAYER   1   ROW     2   COL     4   RATE     584.375    
 BOUNDARY     20   LAYER   1   ROW     2   COL     5   RATE     584.375    
 BOUNDARY     21   LAYER   1   ROW     2   COL     6   RATE     584.375    
 BOUNDARY     22   LAYER   1   ROW     2   COL     7   RATE     584.375    
 BOUNDARY     23   LAYER   1   ROW     2   COL     8   RATE     584.375    
 BOUNDARY     24   LAYER   1   ROW     2   COL     9   RATE     584.375    
 BOUNDARY     25   LAYER   1   ROW     2   COL    10   RATE     584.375    
 BOUNDARY     26   LAYER   1   ROW     2   COL    11   RATE     584.375    
 BOUNDARY     27   LAYER   1   ROW     2   COL    12   RATE     584.375    
 BOUNDARY     28   LAYER   1   ROW     2   COL    13   RATE     584.375    
 BOUNDARY     29   LAYER   1   ROW     2   COL    14   RATE     584.375    
 BOUNDARY     30   LAYER   1   ROW     2   COL    15   RATE     584.375    
 BOUNDARY     31   LAYER   1   ROW     3   COL     1   RATE     584.375    
 BOUNDARY     32   LAYER   1   ROW     3   COL     2   RATE     584.375    
 BOUNDARY     33   LAYER   1   ROW     3   COL     3   RATE     584.375    
 BOUNDARY     34   LAYER   1   ROW     3   COL     4   RATE     584.375    
 BOUNDARY     35   LAYER   1   ROW     3   COL     5   RATE     584.375    
 BOUNDARY     36   LAYER   1   ROW     3   COL     6   RATE     584.375    
 BOUNDARY     37   LAYER   1   ROW     3   COL     7   RATE     584.375    
 BOUNDARY     38   LAYER   1   ROW     3   COL     8   RATE     584.375    
 BOUNDARY     39   LAYER   1   ROW     3   COL     9   RATE     584.375    
 BOUNDARY     40   LAYER   1   ROW     3   COL    10   RATE     584.375    
 BOUNDARY     41   LAYER   1   ROW     3   COL    11   RATE     584.375    
 BOUNDARY     42   LAYER   1   ROW     3   COL    12   RATE     584.375    
 BOUNDARY     43   LAYER   1   ROW     3   COL    13   RATE     584.375    
 BOUNDARY     44   LAYER   1   ROW     3   COL    14   RATE     584.375    
 BOUNDARY     45   LAYER   1   ROW     3   COL    15   RATE     584.375    
 BOUNDARY     46   LAYER   1   ROW     4   COL     1   RATE     584.375    
 BOUNDARY     47   LAYER   1   ROW     4   COL     2   RATE     584.375    
 BOUNDARY     48   LAYER   1   ROW     4   COL     3   RATE     584.375    
 BOUNDARY     49   LAYER   1   ROW     4   COL     4   RATE     584.375    
 BOUNDARY     50   LAYER   1   ROW     4   COL     5   RATE     584.375    
 BOUNDARY     51   LAYER   1   ROW     4   COL     6   RATE     584.375    
 BOUNDARY     52   LAYER   1   ROW     4   COL     7   RATE     584.375    
 BOUNDARY     53   LAYER   1   ROW     4   COL     8   RATE     584.375    
 BOUNDARY     54   LAYER   1   ROW     4   COL     9   RATE     584.375    
 BOUNDARY     55   LAYER   1   ROW     4   COL    10   RATE     584.375    
 BOUNDARY     56   LAYER   1   ROW     4   COL    11   RATE     584.375    
 BOUNDARY     57   LAYER   1   ROW     4   COL    12   RATE     584.375    
 BOUNDARY     58   LAYER   1   ROW     4   COL    13   RATE     584.375    
 BOUNDARY     59   LAYER   1   ROW     4   COL    14   RATE     584.375    
 BOUNDARY     60   LAYER   1   ROW     4   COL    15   RATE     584.375    
 BOUNDARY     61   LAYER   1   ROW     5   COL     1   RATE     584.375    
 BOUNDARY     62   LAYER   1   ROW     5   COL     2   RATE     584.375    
 BOUNDARY     63   LAYER   1   ROW     5   COL     3   RATE     584.375    
 BOUNDARY     64   LAYER   1   ROW     5   COL     4   RATE     584.375    
 BOUNDARY     65   LAYER   1   ROW     5   COL     5   RATE     584.375    
 BOUNDARY     66   LAYER   1   ROW     5   COL     6   RATE     584.375    
 BOUNDARY     67   LAYER   1   ROW     5   COL     7   RATE     584.375    
 BOUNDARY     68   LAYER   1   ROW     5   COL     8   RATE     584.375    
 BOUNDARY     69   LAYER   1   ROW     5   COL     9   RATE     584.375    
 BOUNDARY     70   LAYER   1   ROW     5   COL    10   RATE     584.375    
 BOUNDARY     71   LAYER   1   ROW     5   COL    11   RATE     584.375    
 BOUNDARY     72   LAYER   1   ROW     5   COL    12   RATE     584.375    
 BOUNDARY     73   LAYER   1   ROW     5   COL    13   RATE     584.375    
 BOUNDARY     74   LAYER   1   ROW     5   COL    14   RATE     584.375    
 BOUNDARY     75   LAYER   1   ROW     5   COL    15   RATE     584.375    
 BOUNDARY     76   LAYER   1   ROW     6   COL     1   RATE     584.375    
 BOUNDARY     77   LAYER   1   ROW     6   COL     2   RATE     584.375    
 BOUNDARY     78   LAYER   1   ROW     6   COL     3   RATE     584.375    
 BOUNDARY     79   LAYER   1   ROW     6   COL     4   RATE     584.375    
 BOUNDARY     80   LAYER   1   ROW     6   COL     5   RATE     584.375    
 BOUNDARY     81   LAYER   1   ROW     6   COL     6   RATE     584.375    
 BOUNDARY     82   LAYER   1   ROW     6   COL     7   RATE     584.375    
 BOUNDARY     83   LAYER   1   ROW     6   COL     8   RATE     584.375    
 BOUNDARY     84   LAYER   1   ROW     6   COL     9   RATE     584.375    
 BOUNDARY     85   LAYER   1   ROW     6   COL    10   RATE     584.375    
 BOUNDARY     86   LAYER   1   ROW     6   COL    11   RATE     584.375    
 BOUNDARY     87   LAYER   1   ROW     6   COL    12   RATE     584.375    
 BOUNDARY     88   LAYER   1   ROW     6   COL    13   RATE     584.375    
 BOUNDARY     89   LAYER   1   ROW     6   COL    14   RATE     584.375    
 BOUNDARY     90   LAYER   1   ROW     6   COL    15   RATE     584.375    
 BOUNDARY     91   LAYER   1   ROW     7   COL     1   RATE     584.375    
 BOUNDARY     92   LAYER   1   ROW     7   COL     2   RATE     584.375    
 BOUNDARY     93   LAYER   1   ROW     7   COL     3   RATE     584.375    
 BOUNDARY     94   LAYER   1   ROW     7   COL     4   RATE     584.375    
 BOUNDARY     95   LAYER   1   ROW     7   COL     5   RATE     584.375    
 BOUNDARY     96   LAYER   1   ROW     7   COL     6   RATE     584.375    
 BOUNDARY     97   LAYER   1   ROW     7   COL     7   RATE     584.375    
 BOUNDARY     98   LAYER   1   ROW     7   COL     8   RATE     584.375    
 BOUNDARY     99   LAYER   1   ROW     7   COL     9   RATE     584.375    
 BOUNDARY    100   LAYER   1   ROW     7   COL    10   RATE     584.375    
 BOUNDARY    101   LAYER   1   ROW     7   COL    11   RATE     584.375    
 BOUNDARY    102   LAYER   1   ROW     7   COL    12   RATE     584.375    
 BOUNDARY    103   LAYER   1   ROW     7   COL    13   RATE     584.375    
 BOUNDARY    104   LAYER   1   ROW     7   COL    14   RATE     584.375    
 BOUNDARY    105   LAYER   1   ROW     7   COL    15   RATE     584.375    
 BOUNDARY    106   LAYER   1   ROW     8   COL     1   RATE     584.375    
 BOUNDARY    107   LAYER   1   ROW     8   COL     2   RATE     584.375    
 BOUNDARY    108   LAYER   1   ROW     8   COL     3   RATE     584.375    
 BOUNDARY    109   LAYER   1   ROW     8   COL     4   RATE     584.375    
 BOUNDARY    110   LAYER   1   ROW     8   COL     5   RATE     584.375    
 BOUNDARY    111   LAYER   1   ROW     8   COL     6   RATE     584.375    
 BOUNDARY    112   LAYER   1   ROW     8   COL     7   RATE     584.375    
 BOUNDARY    113   LAYER   1   ROW     8   COL     8   RATE     584.375    
 BOUNDARY    114   LAYER   1   ROW     8   COL     9   RATE     584.375    
 BOUNDARY    115   LAYER   1   ROW     8   COL    10   RATE     584.375    
 BOUNDARY    116   LAYER   1   ROW     8   COL    11   RATE     584.375    
 BOUNDARY    117   LAYER   1   ROW     8   COL    12   RATE     584.375    
 BOUNDARY    118   LAYER   1   ROW     8   COL    13   RATE     584.375    
 BOUNDARY    119   LAYER   1   ROW     8   COL    14   RATE     584.375    
 BOUNDARY    120   LAYER   1   ROW     8   COL    15   RATE     584.375    
 BOUNDARY    121   LAYER   1   ROW     9   COL     1   RATE     584.375    
 BOUNDARY    122   LAYER   1   ROW     9   COL     2   RATE     584.375    
 BOUNDARY    123   LAYER   1   ROW     9   COL     3   RATE     584.375    
 BOUNDARY    124   LAYER   1   ROW     9   COL     4   RATE     584.375    
 BOUNDARY    125   LAYER   1   ROW     9   COL     5   RATE     584.375    
 BOUNDARY    126   LAYER   1   ROW     9   COL     6   RATE     584.375    
 BOUNDARY    127   LAYER   1   ROW     9   COL     7   RATE     584.375    
 BOUNDARY    128   LAYER   1   ROW     9   COL     8   RATE     584.375    
 BOUNDARY    129   LAYER   1   ROW     9   COL     9   RATE     584.375    
 BOUNDARY    130   LAYER   1   ROW     9   COL    10   RATE     584.375    
 BOUNDARY    131   LAYER   1   ROW     9   COL    11   RATE     584.375    
 BOUNDARY    132   LAYER   1   ROW     9   COL    12   RATE     584.375    
 BOUNDARY    133   LAYER   1   ROW     9   COL    13   RATE     584.375    
 BOUNDARY    134   LAYER   1   ROW     9   COL    14   RATE     584.375    
 BOUNDARY    135   LAYER   1   ROW     9   COL    15   RATE     584.375    
 BOUNDARY    136   LAYER   1   ROW    10   COL     1   RATE     584.375    
 BOUNDARY    137   LAYER   1   ROW    10   COL     2   RATE     584.375    
 BOUNDARY    138   LAYER   1   ROW    10   COL     3   RATE     584.375    
 BOUNDARY    139   LAYER   1   ROW    10   COL     4   RATE     584.375    
 BOUNDARY    140   LAYER   1   ROW    10   COL     5   RATE     584.375    
 BOUNDARY    141   LAYER   1   ROW    10   COL     6   RATE     584.375    
 BOUNDARY    142   LAYER   1   ROW    10   COL     7   RATE     584.375    
 BOUNDARY    143   LAYER   1   ROW    10   COL     8   RATE     584.375    
 BOUNDARY    144   LAYER   1   ROW    10   COL     9   RATE     584.375    
 BOUNDARY    145   LAYER   1   ROW    10   COL    10   RATE     584.375    
 BOUNDARY    146   LAYER   1   ROW    10   COL    11   RATE     584.375    
 BOUNDARY    147   LAYER   1   ROW    10   COL    12   RATE     584.375    
 BOUNDARY    148   LAYER   1   ROW    10   COL    13   RATE     584.375    
 BOUNDARY    149   LAYER   1   ROW    10   COL    14   RATE     584.375    
 BOUNDARY    150   LAYER   1   ROW    10   COL    15   RATE     584.375    
 UBDSV4 SAVING ET SEGS          ON UNIT   1016 AT TIME STEP      9, STRESS PERIOD      3

 ET SEGS            PERIOD  3   STEP  9
 BOUNDARY      1   LAYER   1   ROW     1   COL     1   RATE    -1.83742    
 BOUNDARY      2   LAYER   1   ROW     1   COL     2   RATE    -7.56132    
 BOUNDARY      3   LAYER   1   ROW     1   COL     3   RATE    -42.1322    
 BOUNDARY      4   LAYER   1   ROW     1   COL     4   RATE    -83.4375    
 BOUNDARY      5   LAYER   1   ROW     1   COL     5   RATE    -83.4375    
 BOUNDARY      6   LAYER   1   ROW     1   COL     6   RATE    -83.4375    
 BOUNDARY      7   LAYER   1   ROW     1   COL     7   RATE    -83.4375    
 BOUNDARY      8   LAYER   1   ROW     1   COL     8   RATE    -83.4375    
 BOUNDARY      9   LAYER   1   ROW     1   COL     9   RATE    -83.4375    
 BOUNDARY     10   LAYER   1   ROW     1   COL    10   RATE    -83.4375    
 BOUNDARY     11   LAYER   1   ROW     1   COL    11   RATE    -83.4375    
 BOUNDARY     12   LAYER   1   ROW     1   COL    12   RATE    -14.2080    
 BOUNDARY     13   LAYER   1   ROW     1   COL    13   RATE     0.00000    
 BOUNDARY     14   LAYER   1   ROW     1   COL    14   RATE     0.00000    
 BOUNDARY     15   LAYER   1   ROW     1   COL    15   RATE     0.00000    
 BOUNDARY     16   LAYER   1   ROW     2   COL     1   RATE     0.00000    
 BOUNDARY     17   LAYER   1   ROW     2   COL     2   RATE    -3.78946    
 BOUNDARY     18   LAYER   1   ROW     2   COL     3   RATE    -23.7209    
 BOUNDARY     19   LAYER   1   ROW     2   COL     4   RATE    -83.4375    
 BOUNDARY     20   LAYER   1   ROW     2   COL     5   RATE    -83.4375    
 BOUNDARY     21   LAYER   1   ROW     2   COL     6   RATE    -83.4375    
 BOUNDARY     22   LAYER   1   ROW     2   COL     7   RATE    -83.4375    
 BOUNDARY     23   LAYER   1   ROW     2   COL     8   RATE    -83.4375    
 BOUNDARY     24   LAYER   1   ROW     2   COL     9   RATE    -83.4375    
 BOUNDARY     25   LAYER   1   ROW     2   COL    10   RATE    -83.4375    
 BOUNDARY     26   LAYER   1   ROW     2   COL    11   RATE    -83.4375    
 BOUNDARY     27   LAYER   1   ROW     2   COL    12   RATE    -15.6613    
 BOUNDARY     28   LAYER   1   ROW     2   COL    13   RATE   -0.139098    
 BOUNDARY     29   LAYER   1   ROW     2   COL    14   RATE     0.00000    
 BOUNDARY     30   LAYER   1   ROW     2   COL    15   RATE     0.00000    
 BOUNDARY     31   LAYER   1   ROW     3   COL     1   RATE     0.00000    
 BOUNDARY     32   LAYER   1   ROW     3   COL     2   RATE     0.00000    
 BOUNDARY     33   LAYER   1   ROW     3   COL     3   RATE    -18.7889    
 BOUNDARY     34   LAYER   1   ROW     3   COL     4   RATE    -83.4375    
 BOUNDARY     35   LAYER   1   ROW     3   COL     5   RATE    -83.4375    
 BOUNDARY     36   LAYER   1   ROW     3   COL     6   RATE    -83.4375    
 BOUNDARY     37   LAYER   1   ROW     3   COL     7   RATE    -83.4375    
 BOUNDARY     38   LAYER   1   ROW     3   COL     8   RATE    -83.4375    
 BOUNDARY     39   LAYER   1   ROW     3   COL     9   RATE    -83.4375    
 BOUNDARY     40   LAYER   1   ROW     3   COL    10   RATE    -83.4375    
 BOUNDARY     41   LAYER   1   ROW     3   COL    11   RATE    -83.4375    
 BOUNDARY     42   LAYER   1   ROW     3   COL    12   RATE    -18.1127    
 BOUNDARY     43   LAYER   1   ROW     3   COL    13   RATE    -1.63146    
 BOUNDARY     44   LAYER   1   ROW     3   COL    14   RATE     0.00000    
 BOUNDARY     45   LAYER   1   ROW     3   COL    15   RATE     0.00000    
 BOUNDARY     46   LAYER   1   ROW     4   COL     1   RATE     0.00000    
 BOUNDARY     47   LAYER   1   ROW     4   COL     2   RATE    -2.52666    
 BOUNDARY     48   LAYER   1   ROW     4   COL     3   RATE    -22.0219    
 BOUNDARY     49   LAYER   1   ROW     4   COL     4   RATE    -83.4375    
 BOUNDARY     50   LAYER   1   ROW     4   COL     5   RATE    -83.4375    
 BOUNDARY     51   LAYER   1   ROW     4   COL     6   RATE    -83.4375    
 BOUNDARY     52   LAYER   1   ROW     4   COL     7   RATE    -83.4375    
 BOUNDARY     53   LAYER   1   ROW     4   COL     8   RATE    -83.4375    
 BOUNDARY     54   LAYER   1   ROW     4   COL     9   RATE    -83.4375    
 BOUNDARY     55   LAYER   1   ROW     4   COL    10   RATE    -83.4375    
 BOUNDARY     56   LAYER   1   ROW     4   COL    11   RATE    -83.4375    
 BOUNDARY     57   LAYER   1   ROW     4   COL    12   RATE    -20.4516    
 BOUNDARY     58   LAYER   1   ROW     4   COL    13   RATE    -2.85132    
 BOUNDARY     59   LAYER   1   ROW     4   COL    14   RATE     0.00000    
 BOUNDARY     60   LAYER   1   ROW     4   COL    15   RATE     0.00000    
 BOUNDARY     61   LAYER   1   ROW     5   COL     1   RATE     0.00000    
 BOUNDARY     62   LAYER   1   ROW     5   COL     2   RATE    -5.00922    
 BOUNDARY     63   LAYER   1   ROW     5   COL     3   RATE    -26.7155    
 BOUNDARY     64   LAYER   1   ROW     5   COL     4   RATE    -83.4375    
 BOUNDARY     65   LAYER   1   ROW     5   COL     5   RATE    -83.4375    
 BOUNDARY     66   LAYER   1   ROW     5   COL     6   RATE    -83.4375    
 BOUNDARY     67   LAYER   1   ROW     5   COL     7   RATE    -83.4375    
 BOUNDARY     68   LAYER   1   ROW     5   COL     8   RATE    -83.4375    
 BOUNDARY     69   LAYER   1   ROW     5   COL     9   RATE    -83.4375    
 BOUNDARY     70   LAYER   1   ROW     5   COL    10   RATE    -83.4375    
 BOUNDARY     71   LAYER   1   ROW     5   COL    11   RATE    -83.4375    
 BOUNDARY     72   LAYER   1   ROW     5   COL    12   RATE    -22.0696    
 BOUNDARY     73   LAYER   1   ROW     5   COL    13   RATE    -3.60663    
 BOUNDARY     74   LAYER   1   ROW     5   COL    14   RATE     0.00000    
 BOUNDARY     75   LAYER   1   ROW     5   COL    15   RATE     0.00000    
 BOUNDARY     76   LAYER   1   ROW     6   COL     1   RATE     0.00000    
 BOUNDARY     77   LAYER   1   ROW     6   COL     2   RATE    -3.81612    
 BOUNDARY     78   LAYER   1   ROW     6   COL     3   RATE    -29.9631    
 BOUNDARY     79   LAYER   1   ROW     6   COL     4   RATE    -83.4375    
 BOUNDARY     80   LAYER   1   ROW     6   COL     5   RATE    -83.4375    
 BOUNDARY     81   LAYER   1   ROW     6   COL     6   RATE    -83.4375    
 BOUNDARY     82   LAYER   1   ROW     6   COL     7   RATE    -83.4375    
 BOUNDARY     83   LAYER   1   ROW     6   COL     8   RATE    -83.4375    
 BOUNDARY     84   LAYER   1   ROW     6   COL     9   RATE    -83.4375    
 BOUNDARY     85   LAYER   1   ROW     6   COL    10   RATE    -83.4375    
 BOUNDARY     86   LAYER   1   ROW     6   COL    11   RATE    -83.4375    
 BOUNDARY     87   LAYER   1   ROW     6   COL    12   RATE    -22.6121    
 BOUNDARY     88   LAYER   1   ROW     6   COL    13   RATE    -3.57182    
 BOUNDARY     89   LAYER   1   ROW     6   COL    14   RATE     0.00000    
 BOUNDARY     90   LAYER   1   ROW     6   COL    15   RATE     0.00000    
 BOUNDARY     91   LAYER   1   ROW     7   COL     1   RATE     0.00000    
 BOUNDARY     92   LAYER   1   ROW     7   COL     2   RATE   -0.897012    
 BOUNDARY     93   LAYER   1   ROW     7   COL     3   RATE    -35.7823    
 BOUNDARY     94   LAYER   1   ROW     7   COL     4   RATE    -83.4375    
 BOUNDARY     95   LAYER   1   ROW     7   COL     5   RATE    -83.4375    
 BOUNDARY     96   LAYER   1   ROW     7   COL     6   RATE    -83.4375    
 BOUNDARY     97   LAYER   1   ROW     7   COL     7   RATE    -83.4375    
 BOUNDARY     98   LAYER   1   ROW     7   COL     8   RATE    -83.4375    
 BOUNDARY     99   LAYER   1   ROW     7   COL     9   RATE    -83.4375    
 BOUNDARY    100   LAYER   1   ROW     7   COL    10   RATE    -83.4375    
 BOUNDARY    101   LAYER   1   ROW     7   COL    11   RATE    -83.4375    
 BOUNDARY    102   LAYER   1   ROW     7   COL    12   RATE    -22.4783    
 BOUNDARY    103   LAYER   1   ROW     7   COL    13   RATE    -2.96314    
 BOUNDARY    104   LAYER   1   ROW     7   COL    14   RATE     0.00000    
 BOUNDARY    105   LAYER   1   ROW     7   COL    15   RATE     0.00000    
 BOUNDARY    106   LAYER   1   ROW     8   COL     1   RATE     0.00000    
 BOUNDARY    107   LAYER   1   ROW     8   COL     2   RATE    -9.59342    
 BOUNDARY    108   LAYER   1   ROW     8   COL     3   RATE    -83.4375    
 BOUNDARY    109   LAYER   1   ROW     8   COL     4   RATE    -83.4375    
 BOUNDARY    110   LAYER   1   ROW     8   COL     5   RATE    -83.4375    
 BOUNDARY    111   LAYER   1   ROW     8   COL     6   RATE    -83.4375    
 BOUNDARY    112   LAYER   1   ROW     8   COL     7   RATE    -83.4375    
 BOUNDARY    113   LAYER   1   ROW     8   COL     8   RATE    -83.4375    
 BOUNDARY    114   LAYER   1   ROW     8   COL     9   RATE    -83.4375    
 BOUNDARY    115   LAYER   1   ROW     8   COL    10   RATE    -83.4375    
 BOUNDARY    116   LAYER   1   ROW     8   COL    11   RATE    -83.4375    
 BOUNDARY    117   LAYER   1   ROW     8   COL    12   RATE    -22.8037    
 BOUNDARY    118   LAYER   1   ROW     8   COL    13   RATE    -2.96851    
 BOUNDARY    119   LAYER   1   ROW     8   COL    14   RATE     0.00000    
 BOUNDARY    120   LAYER   1   ROW     8   COL    15   RATE     0.00000    
 BOUNDARY    121   LAYER   1   ROW     9   COL     1   RATE    -15.9241    
 BOUNDARY    122   LAYER   1   ROW     9   COL     2   RATE    -51.8033    
 BOUNDARY    123   LAYER   1   ROW     9   COL     3   RATE    -83.4375    
 BOUNDARY    124   LAYER   1   ROW     9   COL     4   RATE    -83.4375    
 BOUNDARY    125   LAYER   1   ROW     9   COL     5   RATE    -83.4375    
 BOUNDARY    126   LAYER   1   ROW     9   COL     6   RATE    -83.4375    
 BOUNDARY    127   LAYER   1   ROW     9   COL     7   RATE    -83.4375    
 BOUNDARY    128   LAYER   1   ROW     9   COL     8   RATE    -83.4375    
 BOUNDARY    129   LAYER   1   ROW     9   COL     9   RATE    -83.4375    
 BOUNDARY    130   LAYER   1   ROW     9   COL    10   RATE    -83.4375    
 BOUNDARY    131   LAYER   1   ROW     9   COL    11   RATE    -83.4375    
 BOUNDARY    132   LAYER   1   ROW     9   COL    12   RATE    -23.7230    
 BOUNDARY    133   LAYER   1   ROW     9   COL    13   RATE    -3.65806    
 BOUNDARY    134   LAYER   1   ROW     9   COL    14   RATE     0.00000    
 BOUNDARY    135   LAYER   1   ROW     9   COL    15   RATE     0.00000    
 BOUNDARY    136   LAYER   1   ROW    10   COL     1   RATE    -58.6944    
 BOUNDARY    137   LAYER   1   ROW    10   COL     2   RATE    -83.4375    
 BOUNDARY    138   LAYER   1   ROW    10   COL     3   RATE    -83.4375    
 BOUNDARY    139   LAYER   1   ROW    10   COL     4   RATE    -83.4375    
 BOUNDARY    140   LAYER   1   ROW    10   COL     5   RATE    -83.4375    
 BOUNDARY    141   LAYER   1   ROW    10   COL     6   RATE    -83.4375    
 BOUNDARY    142   LAYER   1   ROW    10   COL     7   RATE    -83.4375    
 BOUNDARY    143   LAYER   1   ROW    10   COL     8   RATE    -83.4375    
 BOUNDARY    144   LAYER   1   ROW    10   COL     9   RATE    -83.4375    
 BOUNDARY    145   LAYER   1   ROW    10   COL    10   RATE    -83.4375    
 BOUNDARY    146   LAYER   1   ROW    10   COL    11   RATE    -83.4375    
 BOUNDARY    147   LAYER   1   ROW    10   COL    12   RATE    -24.3883    
 BOUNDARY    148   LAYER   1   ROW    10   COL    13   RATE    -4.10005    
 BOUNDARY    149   LAYER   1   ROW    10   COL    14   RATE     0.00000    
 BOUNDARY    150   LAYER   1   ROW    10   COL    15   RATE     0.00000    

 HEAD WILL BE SAVED ON UNIT 1017 AT END OF TIME STEP    9, STRESS PERIOD    3
WEL   no.    2 value from time series:   0.0000     for time:  41.00     to  42.00    
WEL   no.    3 value from time series:   0.0000     for time:  41.00     to  42.00    
RIV   no.    1 value from time series:   101.00     for time:  41.00     to  42.00    
RIV   no.    2 value from time series:   101.00     for time:  41.00     to  42.00    
RIV   no.    3 value from time series:   111.50     for time:  41.00     to  42.00    
RIV   no.    4 value from time series:   111.50     for time:  41.00     to  42.00    
RIV   no.    5 value from time series:   115.10     for time:  41.00     to  42.00    
RIV   no.    6 value from time series:   115.10     for time:  41.00     to  42.00    
RIV   no.    7 value from time series:   104.00     for time:  41.00     to  42.00    
RIV   no.    8 value from time series:   104.00     for time:  41.00     to  42.00    
RIV   no.    9 value from time series:   113.50     for time:  41.00     to  42.00    
RIV   no.   10 value from time series:   113.50     for time:  41.00     to  42.00    
WEL   no.    2 value from time series:   0.0000     for time:  41.00     to  42.00    
WEL   no.    3 value from time series:   0.0000     for time:  41.00     to  42.00    
RIV   no.    1 value from time series:   101.00     for time:  41.00     to  42.00    
RIV   no.    2 value from time series:   101.00     for time:  41.00     to  42.00    
RIV   no.    3 value from time series:   111.50     for time:  41.00     to  42.00    
RIV   no.    4 value from time series:   111.50     for time:  41.00     to  42.00    
RIV   no.    5 value from time series:   115.10     for time:  41.00     to  42.00    
RIV   no.    6 value from time series:   115.10     for time:  41.00     to  42.00    
RIV   no.    7 value from time series:   104.00     for time:  41.00     to  42.00    
RIV   no.    8 value from time series:   104.00     for time:  41.00     to  42.00    
RIV   no.    9 value from time series:   113.50     for time:  41.00     to  42.00    
RIV   no.   10 value from time series:   113.50     for time:  41.00     to  42.00    

 OUTPUT CONTROL FOR STRESS PERIOD    3   TIME STEP   10
    SAVE BUDGET
    SAVE HEAD
    SAVE HEAD FOR ALL LAYERS
 UBDSV1 SAVING          STORAGE ON UNIT   1016 AT TIME STEP     10, STRESS PERIOD      3
 UBDSV1 SAVING FLOW RIGHT FACE  ON UNIT   1016 AT TIME STEP     10, STRESS PERIOD      3
 UBDSV1 SAVING FLOW FRONT FACE  ON UNIT   1016 AT TIME STEP     10, STRESS PERIOD      3
 UBDSV1 SAVING FLOW LOWER FACE  ON UNIT   1016 AT TIME STEP     10, STRESS PERIOD      3
 UBDSV4 SAVING WELLS NEAR RIVER ON UNIT   1016 AT TIME STEP     10, STRESS PERIOD      3

 WELLS NEAR RIVER   PERIOD  3   STEP 10
 BOUNDARY      1   LAYER   1   ROW     2   COL     3   RATE    -50.0000    
 BOUNDARY      2   LAYER   2   ROW     3   COL     4   RATE     0.00000      WELL_1
 BOUNDARY      3   LAYER   2   ROW     8   COL     4   RATE     0.00000      WELL_2
 UBDSV4 SAVING RIVER            ON UNIT   1016 AT TIME STEP     10, STRESS PERIOD      3

 RIVER              PERIOD  3   STEP 10
 BOUNDARY      1   LAYER   1   ROW     1   COL    15   RATE    -4835.91    
 BOUNDARY      2   LAYER   1   ROW     2   COL    15   RATE    -5944.77      RIV2
 BOUNDARY      3   LAYER   1   ROW     3   COL    15   RATE    -2172.79      RIV3
 BOUNDARY      4   LAYER   1   ROW     4   COL    15   RATE    -3629.64    
 BOUNDARY      5   LAYER   1   ROW     5   COL    15   RATE    -2274.12    
 BOUNDARY      6   LAYER   1   ROW     6   COL    15   RATE    -1629.77    
 BOUNDARY      7   LAYER   1   ROW     7   COL    15   RATE    -6118.44      RIVX
 BOUNDARY      8   LAYER   1   ROW     8   COL    15   RATE    -5951.41      RIVX
 BOUNDARY      9   LAYER   1   ROW     9   COL    15   RATE    -2134.37      RIVX
 BOUNDARY     10   LAYER   1   ROW    10   COL    15   RATE    -3024.54    

 GHB LAKES          PERIOD  3   STEP 10
 BOUNDARY      1   LAYER   1   ROW     3   COL     1   RATE    -14483.5    
 BOUNDARY      2   LAYER   1   ROW     7   COL     1   RATE    -1852.03      GHB2_UPPER
 BOUNDARY      3   LAYER   1   ROW     7   COL     1   RATE    -13239.0      GHB2_LOWER
 UBDSV4 SAVING RECHARGE         ON UNIT   1016 AT TIME STEP     10, STRESS PERIOD      3

 RECHARGE           PERIOD  3   STEP 10
 BOUNDARY      1   LAYER   1   ROW     1   COL     1   RATE     586.458    
 BOUNDARY      2   LAYER   1   ROW     1   COL     2   RATE     586.458    
 BOUNDARY      3   LAYER   1   ROW     1   COL     3   RATE     586.458    
 BOUNDARY      4   LAYER   1   ROW     1   COL     4   RATE     586.458    
 BOUNDARY      5   LAYER   1   ROW     1   COL     5   RATE     586.458    
 BOUNDARY      6   LAYER   1   ROW     1   COL     6   RATE     586.458    
 BOUNDARY      7   LAYER   1   ROW     1   COL     7   RATE     586.458    
 BOUNDARY      8   LAYER   1   ROW     1   COL     8   RATE     586.458    
 BOUNDARY      9   LAYER   1   ROW     1   COL     9   RATE     586.458    
 BOUNDARY     10   LAYER   1   ROW     1   COL    10   RATE     586.458    
 BOUNDARY     11   LAYER   1   ROW     1   COL    11   RATE     586.458    
 BOUNDARY     12   LAYER   1   ROW     1   COL    12   RATE     586.458    
 BOUNDARY     13   LAYER   1   ROW     1   COL    13   RATE     586.458    
 BOUNDARY     14   LAYER   1   ROW     1   COL    14   RATE     586.458    
 BOUNDARY     15   LAYER   1   ROW     1   COL    15   RATE     586.458    
 BOUNDARY     16   LAYER   1   ROW     2   COL     1   RATE     586.458    
 BOUNDARY     17   LAYER   1   ROW     2   COL     2   RATE     586.458    
 BOUNDARY     18   LAYER   1   ROW     2   COL     3   RATE     586.458    
 BOUNDARY     19   LAYER   1   ROW     2   COL     4   RATE     586.458    
 BOUNDARY     20   LAYER   1   ROW     2   COL     5   RATE     586.458    
 BOUNDARY     21   LAYER   1   ROW     2   COL     6   RATE     586.458    
 BOUNDARY     22   LAYER   1   ROW     2   COL     7   RATE     586.458    
 BOUNDARY     23   LAYER   1   ROW     2   COL     8   RATE     586.458    
 BOUNDARY     24   LAYER   1   ROW     2   COL     9   RATE     586.458    
 BOUNDARY     25   LAYER   1   ROW     2   COL    10   RATE     586.458    
 BOUNDARY     26   LAYER   1   ROW     2   COL    11   RATE     586.458    
 BOUNDARY     27   LAYER   1   ROW     2   COL    12   RATE     586.458    
 BOUNDARY     28   LAYER   1   ROW     2   COL    13   RATE     586.458    
 BOUNDARY     29   LAYER   1   ROW     2   COL    14   RATE     586.458    
 BOUNDARY     30   LAYER   1   ROW     2   COL    15   RATE     586.458    
 BOUNDARY     31   LAYER   1   ROW     3   COL     1   RATE     586.458    
 BOUNDARY     32   LAYER   1   ROW     3   COL     2   RATE     586.458    
 BOUNDARY     33   LAYER   1   ROW     3   COL     3   RATE     586.458    
 BOUNDARY     34   LAYER   1   ROW     3   COL     4   RATE     586.458    
 BOUNDARY     35   LAYER   1   ROW     3   COL     5   RATE     586.458    
 BOUNDARY     36   LAYER   1   ROW     3   COL     6   RATE     586.458    
 BOUNDARY     37   LAYER   1   ROW     3   COL     7   RATE     586.458    
 BOUNDARY     38   LAYER   1   ROW     3   COL     8   RATE     586.458    
 BOUNDARY     39   LAYER   1   ROW     3   COL     9   RATE     586.458    
 BOUNDARY     40   LAYER   1   ROW     3   COL    10   RATE     586.458    
 BOUNDARY     41   LAYER   1   ROW     3   COL    11   RATE     586.458    
 BOUNDARY     42   LAYER   1   ROW     3   COL    12   RATE     586.458    
 BOUNDARY     43   LAYER   1   ROW     3   COL    13   RATE     586.458    
 BOUNDARY     44   LAYER   1   ROW     3   COL    14   RATE     586.458    
 BOUNDARY     45   LAYER   1   ROW     3   COL    15   RATE     586.458    
 BOUNDARY     46   LAYER   1   ROW     4   COL     1   RATE     586.458    
 BOUNDARY     47   LAYER   1   ROW     4   COL     2   RATE     586.458    
 BOUNDARY     48   LAYER   1   ROW     4   COL     3   RATE     586.458    
 BOUNDARY     49   LAYER   1   ROW     4   COL     4   RATE     586.458    
 BOUNDARY     50   LAYER   1   ROW     4   COL     5   RATE     586.458    
 BOUNDARY     51   LAYER   1   ROW     4   COL     6   RATE     586.458    
 BOUNDARY     52   LAYER   1   ROW     4   COL     7   RATE     586.458    
 BOUNDARY     53   LAYER   1   ROW     4   COL     8   RATE     586.458    
 BOUNDARY     54   LAYER   1   ROW     4   COL     9   RATE     586.458    
 BOUNDARY     55   LAYER   1   ROW     4   COL    10   RATE     586.458    
 BOUNDARY     56   LAYER   1   ROW     4   COL    11   RATE     586.458    
 BOUNDARY     57   LAYER   1   ROW     4   COL    12   RATE     586.458    
 BOUNDARY     58   LAYER   1   ROW     4   COL    13   RATE     586.458    
 BOUNDARY     59   LAYER   1   ROW     4   COL    14   RATE     586.458    
 BOUNDARY     60   LAYER   1   ROW     4   COL    15   RATE     586.458    
 BOUNDARY     61   LAYER   1   ROW     5   COL     1   RATE     586.458    
 BOUNDARY     62   LAYER   1   ROW     5   COL     2   RATE     586.458    
 BOUNDARY     63   LAYER   1   ROW     5   COL     3   RATE     586.458    
 BOUNDARY     64   LAYER   1   ROW     5   COL     4   RATE     586.458    
 BOUNDARY     65   LAYER   1   ROW     5   COL     5   RATE     586.458    
 BOUNDARY     66   LAYER   1   ROW     5   COL     6   RATE     586.458    
 BOUNDARY     67   LAYER   1   ROW     5   COL     7   RATE     586.458    
 BOUNDARY     68   LAYER   1   ROW     5   COL     8   RATE     586.458    
 BOUNDARY     69   LAYER   1   ROW     5   COL     9   RATE     586.458    
 BOUNDARY     70   LAYER   1   ROW     5   COL    10   RATE     586.458    
 BOUNDARY     71   LAYER   1   ROW     5   COL    11   RATE     586.458    
 BOUNDARY     72   LAYER   1   ROW     5   COL    12   RATE     586.458    
 BOUNDARY     73   LAYER   1   ROW     5   COL    13   RATE     586.458    
 BOUNDARY     74   LAYER   1   ROW     5   COL    14   RATE     586.458    
 BOUNDARY     75   LAYER   1   ROW     5   COL    15   RATE     586.458    
 BOUNDARY     76   LAYER   1   ROW     6   COL     1   RATE     586.458    
 BOUNDARY     77   LAYER   1   ROW     6   COL     2   RATE     586.458    
 BOUNDARY     78   LAYER   1   ROW     6   COL     3   RATE     586.458    
 BOUNDARY     79   LAYER   1   ROW     6   COL     4   RATE     586.458    
 BOUNDARY     80   LAYER   1   ROW     6   COL     5   RATE     586.458    
 BOUNDARY     81   LAYER   1   ROW     6   COL     6   RATE     586.458    
 BOUNDARY     82   LAYER   1   ROW     6   COL     7   RATE     586.458    
 BOUNDARY     83   LAYER   1   ROW     6   COL     8   RATE     586.458    
 BOUNDARY     84   LAYER   1   ROW     6   COL     9   RATE     586.458    
 BOUNDARY     85   LAYER   1   ROW     6   COL    10   RATE     586.458    
 BOUNDARY     86   LAYER   1   ROW     6   COL    11   RATE     586.458    
 BOUNDARY     87   LAYER   1   ROW     6   COL    12   RATE     586.458    
 BOUNDARY     88   LAYER   1   ROW     6   COL    13   RATE     586.458    
 BOUNDARY     89   LAYER   1   ROW     6   COL    14   RATE     586.458    
 BOUNDARY     90   LAYER   1   ROW     6   COL    15   RATE     586.458    
 BOUNDARY     91   LAYER   1   ROW     7   COL     1   RATE     586.458    
 BOUNDARY     92   LAYER   1   ROW     7   COL     2   RATE     586.458    
 BOUNDARY     93   LAYER   1   ROW     7   COL     3   RATE     586.458    
 BOUNDARY     94   LAYER   1   ROW     7   COL     4   RATE     586.458    
 BOUNDARY     95   LAYER   1   ROW     7   COL     5   RATE     586.458    
 BOUNDARY     96   LAYER   1   ROW     7   COL     6   RATE     586.458    
 BOUNDARY     97   LAYER   1   ROW     7   COL     7   RATE     586.458    
 BOUNDARY     98   LAYER   1   ROW     7   COL     8   RATE     586.458    
 BOUNDARY     99   LAYER   1   ROW     7   COL     9   RATE     586.458    
 BOUNDARY    100   LAYER   1   ROW     7   COL    10   RATE     586.458    
 BOUNDARY    101   LAYER   1   ROW     7   COL    11   RATE     586.458    
 BOUNDARY    102   LAYER   1   ROW     7   COL    12   RATE     586.458    
 BOUNDARY    103   LAYER   1   ROW     7   COL    13   RATE     586.458    
 BOUNDARY    104   LAYER   1   ROW     7   COL    14   RATE     586.458    
 BOUNDARY    105   LAYER   1   ROW     7   COL    15   RATE     586.458    
 BOUNDARY    106   LAYER   1   ROW     8   COL     1   RATE     586.458    
 BOUNDARY    107   LAYER   1   ROW     8   COL     2   RATE     586.458    
 BOUNDARY    108   LAYER   1   ROW     8   COL     3   RATE     586.458    
 BOUNDARY    109   LAYER   1   ROW     8   COL     4   RATE     586.458    
 BOUNDARY    110   LAYER   1   ROW     8   COL     5   RATE     586.458    
 BOUNDARY    111   LAYER   1   ROW     8   COL     6   RATE     586.458    
 BOUNDARY    112   LAYER   1   ROW     8   COL     7   RATE     586.458    
 BOUNDARY    113   LAYER   1   ROW     8   COL     8   RATE     586.458    
 BOUNDARY    114   LAYER   1   ROW     8   COL     9   RATE     586.458    
 BOUNDARY    115   LAYER   1   ROW     8   COL    10   RATE     586.458    
 BOUNDARY    116   LAYER   1   ROW     8   COL    11   RATE     586.458    
 BOUNDARY    117   LAYER   1   ROW     8   COL    12   RATE     586.458    
 BOUNDARY    118   LAYER   1   ROW     8   COL    13   RATE     586.458    
 BOUNDARY    119   LAYER   1   ROW     8   COL    14   RATE     586.458    
 BOUNDARY    120   LAYER   1   ROW     8   COL    15   RATE     586.458    
 BOUNDARY    121   LAYER   1   ROW     9   COL     1   RATE     586.458    
 BOUNDARY    122   LAYER   1   ROW     9   COL     2   RATE     586.458    
 BOUNDARY    123   LAYER   1   ROW     9   COL     3   RATE     586.458    
 BOUNDARY    124   LAYER   1   ROW     9   COL     4   RATE     586.458    
 BOUNDARY    125   LAYER   1   ROW     9   COL     5   RATE     586.458    
 BOUNDARY    126   LAYER   1   ROW     9   COL     6   RATE     586.458    
 BOUNDARY    127   LAYER   1   ROW     9   COL     7   RATE     586.458    
 BOUNDARY    128   LAYER   1   ROW     9   COL     8   RATE     586.458    
 BOUNDARY    129   LAYER   1   ROW     9   COL     9   RATE     586.458    
 BOUNDARY    130   LAYER   1   ROW     9   COL    10   RATE     586.458    
 BOUNDARY    131   LAYER   1   ROW     9   COL    11   RATE     586.458    
 BOUNDARY    132   LAYER   1   ROW     9   COL    12   RATE     586.458    
 BOUNDARY    133   LAYER   1   ROW     9   COL    13   RATE     586.458    
 BOUNDARY    134   LAYER   1   ROW     9   COL    14   RATE     586.458    
 BOUNDARY    135   LAYER   1   ROW     9   COL    15   RATE     586.458    
 BOUNDARY    136   LAYER   1   ROW    10   COL     1   RATE     586.458    
 BOUNDARY    137   LAYER   1   ROW    10   COL     2   RATE     586.458    
 BOUNDARY    138   LAYER   1   ROW    10   COL     3   RATE     586.458    
 BOUNDARY    139   LAYER   1   ROW    10   COL     4   RATE     586.458    
 BOUNDARY    140   LAYER   1   ROW    10   COL     5   RATE     586.458    
 BOUNDARY    141   LAYER   1   ROW    10   COL     6   RATE     586.458    
 BOUNDARY    142   LAYER   1   ROW    10   COL     7   RATE     586.458    
 BOUNDARY    143   LAYER   1   ROW    10   COL     8   RATE     586.458    
 BOUNDARY    144   LAYER   1   ROW    10   COL     9   RATE     586.458    
 BOUNDARY    145   LAYER   1   ROW    10   COL    10   RATE     586.458    
 BOUNDARY    146   LAYER   1   ROW    10   COL    11   RATE     586.458    
 BOUNDARY    147   LAYER   1   ROW    10   COL    12   RATE     586.458    
 BOUNDARY    148   LAYER   1   ROW    10   COL    13   RATE     586.458    
 BOUNDARY    149   LAYER   1   ROW    10   COL    14   RATE     586.458    
 BOUNDARY    150   LAYER   1   ROW    10   COL    15   RATE     586.458    
 UBDSV4 SAVING ET SEGS          ON UNIT   1016 AT TIME STEP     10, STRESS PERIOD      3

 ET SEGS            PERIOD  3   STEP 10
 BOUNDARY      1   LAYER   1   ROW     1   COL     1   RATE    -1.84769    
 BOUNDARY      2   LAYER   1   ROW     1   COL     2   RATE    -7.58602    
 BOUNDARY      3   LAYER   1   ROW     1   COL     3   RATE    -42.3388    
 BOUNDARY      4   LAYER   1   ROW     1   COL     4   RATE    -83.6458    
 BOUNDARY      5   LAYER   1   ROW     1   COL     5   RATE    -83.6458    
 BOUNDARY      6   LAYER   1   ROW     1   COL     6   RATE    -83.6458    
 BOUNDARY      7   LAYER   1   ROW     1   COL     7   RATE    -83.6458    
 BOUNDARY      8   LAYER   1   ROW     1   COL     8   RATE    -83.6458    
 BOUNDARY      9   LAYER   1   ROW     1   COL     9   RATE    -83.6458    
 BOUNDARY     10   LAYER   1   ROW     1   COL    10   RATE    -83.6458    
 BOUNDARY     11   LAYER   1   ROW     1   COL    11   RATE    -83.6458    
 BOUNDARY     12   LAYER   1   ROW     1   COL    12   RATE    -14.2645    
 BOUNDARY     13   LAYER   1   ROW     1   COL    13   RATE     0.00000    
 BOUNDARY     14   LAYER   1   ROW     1   COL    14   RATE     0.00000    
 BOUNDARY     15   LAYER   1   ROW     1   COL    15   RATE     0.00000    
 BOUNDARY     16   LAYER   1   ROW     2   COL     1   RATE     0.00000    
 BOUNDARY     17   LAYER   1   ROW     2   COL     2   RATE    -3.80441    
 BOUNDARY     18   LAYER   1   ROW     2   COL     3   RATE    -23.7939    
 BOUNDARY     19   LAYER   1   ROW     2   COL     4   RATE    -83.6458    
 BOUNDARY     20   LAYER   1   ROW     2   COL     5   RATE    -83.6458    
 BOUNDARY     21   LAYER   1   ROW     2   COL     6   RATE    -83.6458    
 BOUNDARY     22   LAYER   1   ROW     2   COL     7   RATE    -83.6458    
 BOUNDARY     23   LAYER   1   ROW     2   COL     8   RATE    -83.6458    
 BOUNDARY     24   LAYER   1   ROW     2   COL     9   RATE    -83.6458    
 BOUNDARY     25   LAYER   1   ROW     2   COL    10   RATE    -83.6458    
 BOUNDARY     26   LAYER   1   ROW     2   COL    11   RATE    -83.6458    
 BOUNDARY     27   LAYER   1   ROW     2   COL    12   RATE    -15.7215    
 BOUNDARY     28   LAYER   1   ROW     2   COL    13   RATE   -0.145917    
 BOUNDARY     29   LAYER   1   ROW     2   COL    14   RATE     0.00000    
 BOUNDARY     30   LAYER   1   ROW     2   COL    15   RATE     0.00000    
 BOUNDARY     31   LAYER   1   ROW     3   COL     1   RATE     0.00000    
 BOUNDARY     32   LAYER   1   ROW     3   COL     2   RATE     0.00000    
 BOUNDARY     33   LAYER   1   ROW     3   COL     3   RATE    -18.8552    
 BOUNDARY     34   LAYER   1   ROW     3   COL     4   RATE    -83.6458    
 BOUNDARY     35   LAYER   1   ROW     3   COL     5   RATE    -83.6458    
 BOUNDARY     36   LAYER   1   ROW     3   COL     6   RATE    -83.6458    
 BOUNDARY     37   LAYER   1   ROW     3   COL     7   RATE    -83.6458    
 BOUNDARY     38   LAYER   1   ROW     3   COL     8   RATE    -83.6458    
 BOUNDARY     39   LAYER   1   ROW     3   COL     9   RATE    -83.6458    
 BOUNDARY     40   LAYER   1   ROW     3   COL    10   RATE    -83.6458    
 BOUNDARY     41   LAYER   1   ROW     3   COL    11   RATE    -83.6458    
 BOUNDARY     42   LAYER   1   ROW     3   COL    12   RATE    -18.1791    
 BOUNDARY     43   LAYER   1   ROW     3   COL    13   RATE    -1.64213    
 BOUNDARY     44   LAYER   1   ROW     3   COL    14   RATE     0.00000    
 BOUNDARY     45   LAYER   1   ROW     3   COL    15   RATE     0.00000    
 BOUNDARY     46   LAYER   1   ROW     4   COL     1   RATE     0.00000    
 BOUNDARY     47   LAYER   1   ROW     4   COL     2   RATE    -2.53871    
 BOUNDARY     48   LAYER   1   ROW     4   COL     3   RATE    -22.0971    
 BOUNDARY     49   LAYER   1   ROW     4   COL     4   RATE    -83.6458    
 BOUNDARY     50   LAYER   1   ROW     4   COL     5   RATE    -83.6458    
 BOUNDARY     51   LAYER   1   ROW     4   COL     6   RATE    -83.6458    
 BOUNDARY     52   LAYER   1   ROW     4   COL     7   RATE    -83.6458    
 BOUNDARY     53   LAYER   1   ROW     4   COL     8   RATE    -83.6458    
 BOUNDARY     54   LAYER   1   ROW     4   COL     9   RATE    -83.6458    
 BOUNDARY     55   LAYER   1   ROW     4   COL    10   RATE    -83.6458    
 BOUNDARY     56   LAYER   1   ROW     4   COL    11   RATE    -83.6458    
 BOUNDARY     57   LAYER   1   ROW     4   COL    12   RATE    -20.5236    
 BOUNDARY     58   LAYER   1   ROW     4   COL    13   RATE    -2.86485    
 BOUNDARY     59   LAYER   1   ROW     4   COL    14   RATE     0.00000    
 BOUNDARY     60   LAYER   1   ROW     4   COL    15   RATE     0.00000    
 BOUNDARY     61   LAYER   1   ROW     5   COL     1   RATE     0.00000    
 BOUNDARY     62   LAYER   1   ROW     5   COL     2   RATE    -5.02752    
 BOUNDARY     63   LAYER   1   ROW     5   COL     3   RATE    -26.8882    
 BOUNDARY     64   LAYER   1   ROW     5   COL     4   RATE    -83.6458    
 BOUNDARY     65   LAYER   1   ROW     5   COL     5   RATE    -83.6458    
 BOUNDARY     66   LAYER   1   ROW     5   COL     6   RATE    -83.6458    
 BOUNDARY     67   LAYER   1   ROW     5   COL     7   RATE    -83.6458    
 BOUNDARY     68   LAYER   1   ROW     5   COL     8   RATE    -83.6458    
 BOUNDARY     69   LAYER   1   ROW     5   COL     9   RATE    -83.6458    
 BOUNDARY     70   LAYER   1   ROW     5   COL    10   RATE    -83.6458    
 BOUNDARY     71   LAYER   1   ROW     5   COL    11   RATE    -83.6458    
 BOUNDARY     72   LAYER   1   ROW     5   COL    12   RATE    -22.1454    
 BOUNDARY     73   LAYER   1   ROW     5   COL    13   RATE    -3.62160    
 BOUNDARY     74   LAYER   1   ROW     5   COL    14   RATE     0.00000    
 BOUNDARY     75   LAYER   1   ROW     5   COL    15   RATE     0.00000    
 BOUNDARY     76   LAYER   1   ROW     6   COL     1   RATE     0.00000    
 BOUNDARY     77   LAYER   1   ROW     6   COL     2   RATE    -3.83136    
 BOUNDARY     78   LAYER   1   ROW     6   COL     3   RATE    -30.1439    
 BOUNDARY     79   LAYER   1   ROW     6   COL     4   RATE    -83.6458    
 BOUNDARY     80   LAYER   1   ROW     6   COL     5   RATE    -83.6458    
 BOUNDARY     81   LAYER   1   ROW     6   COL     6   RATE    -83.6458    
 BOUNDARY     82   LAYER   1   ROW     6   COL     7   RATE    -83.6458    
 BOUNDARY     83   LAYER   1   ROW     6   COL     8   RATE    -83.6458    
 BOUNDARY     84   LAYER   1   ROW     6   COL     9   RATE    -83.6458    
 BOUNDARY     85   LAYER   1   ROW     6   COL    10   RATE    -83.6458    
 BOUNDARY     86   LAYER   1   ROW     6   COL    11   RATE    -83.6458    
 BOUNDARY     87   LAYER   1   ROW     6   COL    12   RATE    -22.6892    
 BOUNDARY     88   LAYER   1   ROW     6   COL    13   RATE    -3.58659    
 BOUNDARY     89   LAYER   1   ROW     6   COL    14   RATE     0.00000    
 BOUNDARY     90   LAYER   1   ROW     6   COL    15   RATE     0.00000    
 BOUNDARY     91   LAYER   1   ROW     7   COL     1   RATE     0.00000    
 BOUNDARY     92   LAYER   1   ROW     7   COL     2   RATE   -0.904694    
 BOUNDARY     93   LAYER   1   ROW     7   COL     3   RATE    -35.9785    
 BOUNDARY     94   LAYER   1   ROW     7   COL     4   RATE    -83.6458    
 BOUNDARY     95   LAYER   1   ROW     7   COL     5   RATE    -83.6458    
 BOUNDARY     96   LAYER   1   ROW     7   COL     6   RATE    -83.6458    
 BOUNDARY     97   LAYER   1   ROW     7   COL     7   RATE    -83.6458    
 BOUNDARY     98   LAYER   1   ROW     7   COL     8   RATE    -83.6458    
 BOUNDARY     99   LAYER   1   ROW     7   COL     9   RATE    -83.6458    
 BOUNDARY    100   LAYER   1   ROW     7   COL    10   RATE    -83.6458    
 BOUNDARY    101   LAYER   1   ROW     7   COL    11   RATE    -83.6458    
 BOUNDARY    102   LAYER   1   ROW     7   COL    12   RATE    -22.5553    
 BOUNDARY    103   LAYER   1   ROW     7   COL    13   RATE    -2.97663    
 BOUNDARY    104   LAYER   1   ROW     7   COL    14   RATE     0.00000    
 BOUNDARY    105   LAYER   1   ROW     7   COL    15   RATE     0.00000    
 BOUNDARY    106   LAYER   1   ROW     8   COL     1   RATE     0.00000    
 BOUNDARY    107   LAYER   1   ROW     8   COL     2   RATE    -9.63723    
 BOUNDARY    108   LAYER   1   ROW     8   COL     3   RATE    -83.6458    
 BOUNDARY    109   LAYER   1   ROW     8   COL     4   RATE    -83.6458    
 BOUNDARY    110   LAYER   1   ROW     8   COL     5   RATE    -83.6458    
 BOUNDARY    111   LAYER   1   ROW     8   COL     6   RATE    -83.6458    
 BOUNDARY    112   LAYER   1   ROW     8   COL     7   RATE    -83.6458    
 BOUNDARY    113   LAYER   1   ROW     8   COL     8   RATE    -83.6458    
 BOUNDARY    114   LAYER   1   ROW     8   COL     9   RATE    -83.6458    
 BOUNDARY    115   LAYER   1   ROW     8   COL    10   RATE    -83.6458    
 BOUNDARY    116   LAYER   1   ROW     8   COL    11   RATE    -83.6458    
 BOUNDARY    117   LAYER   1   ROW     8   COL    12   RATE    -22.8818    
 BOUNDARY    118   LAYER   1   ROW     8   COL    13   RATE    -2.98237    
 BOUNDARY    119   LAYER   1   ROW     8   COL    14   RATE     0.00000    
 BOUNDARY    120   LAYER   1   ROW     8   COL    15   RATE     0.00000    
 BOUNDARY    121   LAYER   1   ROW     9   COL     1   RATE    -15.9839    
 BOUNDARY    122   LAYER   1   ROW     9   COL     2   RATE    -52.0409    
 BOUNDARY    123   LAYER   1   ROW     9   COL     3   RATE    -83.6458    
 BOUNDARY    124   LAYER   1   ROW     9   COL     4   RATE    -83.6458    
 BOUNDARY    125   LAYER   1   ROW     9   COL     5   RATE    -83.6458    
 BOUNDARY    126   LAYER   1   ROW     9   COL     6   RATE    -83.6458    
 BOUNDARY    127   LAYER   1   ROW     9   COL     7   RATE    -83.6458    
 BOUNDARY    128   LAYER   1   ROW     9   COL     8   RATE    -83.6458    
 BOUNDARY    129   LAYER   1   ROW     9   COL     9   RATE    -83.6458    
 BOUNDARY    130   LAYER   1   ROW     9   COL    10   RATE    -83.6458    
 BOUNDARY    131   LAYER   1   ROW     9   COL    11   RATE    -83.6458    
 BOUNDARY    132   LAYER   1   ROW     9   COL    12   RATE    -23.8037    
 BOUNDARY    133   LAYER   1   ROW     9   COL    13   RATE    -3.67420    
 BOUNDARY    134   LAYER   1   ROW     9   COL    14   RATE     0.00000    
 BOUNDARY    135   LAYER   1   ROW     9   COL    15   RATE     0.00000    
 BOUNDARY    136   LAYER   1   ROW    10   COL     1   RATE    -58.9491    
 BOUNDARY    137   LAYER   1   ROW    10   COL     2   RATE    -83.6458    
 BOUNDARY    138   LAYER   1   ROW    10   COL     3   RATE    -83.6458    
 BOUNDARY    139   LAYER   1   ROW    10   COL     4   RATE    -83.6458    
 BOUNDARY    140   LAYER   1   ROW    10   COL     5   RATE    -83.6458    
 BOUNDARY    141   LAYER   1   ROW    10   COL     6   RATE    -83.6458    
 BOUNDARY    142   LAYER   1   ROW    10   COL     7   RATE    -83.6458    
 BOUNDARY    143   LAYER   1   ROW    10   COL     8   RATE    -83.6458    
 BOUNDARY    144   LAYER   1   ROW    10   COL     9   RATE    -83.6458    
 BOUNDARY    145   LAYER   1   ROW    10   COL    10   RATE    -83.6458    
 BOUNDARY    146   LAYER   1   ROW    10   COL    11   RATE    -83.6458    
 BOUNDARY    147   LAYER   1   ROW    10   COL    12   RATE    -24.4709    
 BOUNDARY    148   LAYER   1   ROW    10   COL    13   RATE    -4.11755    
 BOUNDARY    149   LAYER   1   ROW    10   COL    14   RATE     0.00000    
 BOUNDARY    150   LAYER   1   ROW    10   COL    15   RATE     0.00000    

 HEAD WILL BE SAVED ON UNIT 1017 AT END OF TIME STEP   10, STRESS PERIOD    3
WEL   no.    2 value from time series:   0.0000     for time:  42.00     to  43.00    
WEL   no.    3 value from time series:   0.0000     for time:  42.00     to  43.00    
RIV   no.    1 value from time series:   101.00     for time:  42.00     to  43.00    
RIV   no.    2 value from time series:   101.00     for time:  42.00     to  43.00    
RIV   no.    3 value from time series:   111.50     for time:  42.00     to  43.00    
RIV   no.    4 value from time series:   111.50     for time:  42.00     to  43.00    
RIV   no.    5 value from time series:   115.10     for time:  42.00     to  43.00    
RIV   no.    6 value from time series:   115.10     for time:  42.00     to  43.00    
RIV   no.    7 value from time series:   104.00     for time:  42.00     to  43.00    
RIV   no.    8 value from time series:   104.00     for time:  42.00     to  43.00    
RIV   no.    9 value from time series:   113.50     for time:  42.00     to  43.00    
RIV   no.   10 value from time series:   113.50     for time:  42.00     to  43.00    
WEL   no.    2 value from time series:   0.0000     for time:  42.00     to  43.00    
WEL   no.    3 value from time series:   0.0000     for time:  42.00     to  43.00    
RIV   no.    1 value from time series:   101.00     for time:  42.00     to  43.00    
RIV   no.    2 value from time series:   101.00     for time:  42.00     to  43.00    
RIV   no.    3 value from time series:   111.50     for time:  42.00     to  43.00    
RIV   no.    4 value from time series:   111.50     for time:  42.00     to  43.00    
RIV   no.    5 value from time series:   115.10     for time:  42.00     to  43.00    
RIV   no.    6 value from time series:   115.10     for time:  42.00     to  43.00    
RIV   no.    7 value from time series:   104.00     for time:  42.00     to  43.00    
RIV   no.    8 value from time series:   104.00     for time:  42.00     to  43.00    
RIV   no.    9 value from time series:   113.50     for time:  42.00     to  43.00    
RIV   no.   10 value from time series:   113.50     for time:  42.00     to  43.00    

 NO OUTPUT CONTROL FOR STRESS PERIOD    3   TIME STEP   11
WEL   no.    2 value from time series:   0.0000     for time:  43.00     to  44.00    
WEL   no.    3 value from time series:   0.0000     for time:  43.00     to  44.00    
RIV   no.    1 value from time series:   101.00     for time:  43.00     to  44.00    
RIV   no.    2 value from time series:   101.00     for time:  43.00     to  44.00    
RIV   no.    3 value from time series:   111.50     for time:  43.00     to  44.00    
RIV   no.    4 value from time series:   111.50     for time:  43.00     to  44.00    
RIV   no.    5 value from time series:   115.10     for time:  43.00     to  44.00    
RIV   no.    6 value from time series:   115.10     for time:  43.00     to  44.00    
RIV   no.    7 value from time series:   104.00     for time:  43.00     to  44.00    
RIV   no.    8 value from time series:   104.00     for time:  43.00     to  44.00    
RIV   no.    9 value from time series:   113.50     for time:  43.00     to  44.00    
RIV   no.   10 value from time series:   113.50     for time:  43.00     to  44.00    
WEL   no.    2 value from time series:   0.0000     for time:  43.00     to  44.00    
WEL   no.    3 value from time series:   0.0000     for time:  43.00     to  44.00    
RIV   no.    1 value from time series:   101.00     for time:  43.00     to  44.00    
RIV   no.    2 value from time series:   101.00     for time:  43.00     to  44.00    
RIV   no.    3 value from time series:   111.50     for time:  43.00     to  44.00    
RIV   no.    4 value from time series:   111.50     for time:  43.00     to  44.00    
RIV   no.    5 value from time series:   115.10     for time:  43.00     to  44.00    
RIV   no.    6 value from time series:   115.10     for time:  43.00     to  44.00    
RIV   no.    7 value from time series:   104.00     for time:  43.00     to  44.00    
RIV   no.    8 value from time series:   104.00     for time:  43.00     to  44.00    
RIV   no.    9 value from time series:   113.50     for time:  43.00     to  44.00    
RIV   no.   10 value from time series:   113.50     for time:  43.00     to  44.00    

 NO OUTPUT CONTROL FOR STRESS PERIOD    3   TIME STEP   12
WEL   no.    2 value from time series:   0.0000     for time:  44.00     to  45.00    
WEL   no.    3 value from time series:   0.0000     for time:  44.00     to  45.00    
RIV   no.    1 value from time series:   101.00     for time:  44.00     to  45.00    
RIV   no.    2 value from time series:   101.00     for time:  44.00     to  45.00    
RIV   no.    3 value from time series:   111.50     for time:  44.00     to  45.00    
RIV   no.    4 value from time series:   111.50     for time:  44.00     to  45.00    
RIV   no.    5 value from time series:   115.10     for time:  44.00     to  45.00    
RIV   no.    6 value from time series:   115.10     for time:  44.00     to  45.00    
RIV   no.    7 value from time series:   104.00     for time:  44.00     to  45.00    
RIV   no.    8 value from time series:   104.00     for time:  44.00     to  45.00    
RIV   no.    9 value from time series:   113.50     for time:  44.00     to  45.00    
RIV   no.   10 value from time series:   113.50     for time:  44.00     to  45.00    
WEL   no.    2 value from time series:   0.0000     for time:  44.00     to  45.00    
WEL   no.    3 value from time series:   0.0000     for time:  44.00     to  45.00    
RIV   no.    1 value from time series:   101.00     for time:  44.00     to  45.00    
RIV   no.    2 value from time series:   101.00     for time:  44.00     to  45.00    
RIV   no.    3 value from time series:   111.50     for time:  44.00     to  45.00    
RIV   no.    4 value from time series:   111.50     for time:  44.00     to  45.00    
RIV   no.    5 value from time series:   115.10     for time:  44.00     to  45.00    
RIV   no.    6 value from time series:   115.10     for time:  44.00     to  45.00    
RIV   no.    7 value from time series:   104.00     for time:  44.00     to  45.00    
RIV   no.    8 value from time series:   104.00     for time:  44.00     to  45.00    
RIV   no.    9 value from time series:   113.50     for time:  44.00     to  45.00    
RIV   no.   10 value from time series:   113.50     for time:  44.00     to  45.00    

 NO OUTPUT CONTROL FOR STRESS PERIOD    3   TIME STEP   13
WEL   no.    2 value from time series:   0.0000     for time:  45.00     to  46.00    
WEL   no.    3 value from time series:   0.0000     for time:  45.00     to  46.00    
RIV   no.    1 value from time series:   101.00     for time:  45.00     to  46.00    
RIV   no.    2 value from time series:   101.00     for time:  45.00     to  46.00    
RIV   no.    3 value from time series:   111.50     for time:  45.00     to  46.00    
RIV   no.    4 value from time series:   111.50     for time:  45.00     to  46.00    
RIV   no.    5 value from time series:   115.10     for time:  45.00     to  46.00    
RIV   no.    6 value from time series:   115.10     for time:  45.00     to  46.00    
RIV   no.    7 value from time series:   104.00     for time:  45.00     to  46.00    
RIV   no.    8 value from time series:   104.00     for time:  45.00     to  46.00    
RIV   no.    9 value from time series:   113.50     for time:  45.00     to  46.00    
RIV   no.   10 value from time series:   113.50     for time:  45.00     to  46.00    
WEL   no.    2 value from time series:   0.0000     for time:  45.00     to  46.00    
WEL   no.    3 value from time series:   0.0000     for time:  45.00     to  46.00    
RIV   no.    1 value from time series:   101.00     for time:  45.00     to  46.00    
RIV   no.    2 value from time series:   101.00     for time:  45.00     to  46.00    
RIV   no.    3 value from time series:   111.50     for time:  45.00     to  46.00    
RIV   no.    4 value from time series:   111.50     for time:  45.00     to  46.00    
RIV   no.    5 value from time series:   115.10     for time:  45.00     to  46.00    
RIV   no.    6 value from time series:   115.10     for time:  45.00     to  46.00    
RIV   no.    7 value from time series:   104.00     for time:  45.00     to  46.00    
RIV   no.    8 value from time series:   104.00     for time:  45.00     to  46.00    
RIV   no.    9 value from time series:   113.50     for time:  45.00     to  46.00    
RIV   no.   10 value from time series:   113.50     for time:  45.00     to  46.00    

 NO OUTPUT CONTROL FOR STRESS PERIOD    3   TIME STEP   14
WEL   no.    2 value from time series:   0.0000     for time:  46.00     to  47.00    
WEL   no.    3 value from time series:   0.0000     for time:  46.00     to  47.00    
RIV   no.    1 value from time series:   101.00     for time:  46.00     to  47.00    
RIV   no.    2 value from time series:   101.00     for time:  46.00     to  47.00    
RIV   no.    3 value from time series:   111.50     for time:  46.00     to  47.00    
RIV   no.    4 value from time series:   111.50     for time:  46.00     to  47.00    
RIV   no.    5 value from time series:   115.10     for time:  46.00     to  47.00    
RIV   no.    6 value from time series:   115.10     for time:  46.00     to  47.00    
RIV   no.    7 value from time series:   104.00     for time:  46.00     to  47.00    
RIV   no.    8 value from time series:   104.00     for time:  46.00     to  47.00    
RIV   no.    9 value from time series:   113.50     for time:  46.00     to  47.00    
RIV   no.   10 value from time series:   113.50     for time:  46.00     to  47.00    
WEL   no.    2 value from time series:   0.0000     for time:  46.00     to  47.00    
WEL   no.    3 value from time series:   0.0000     for time:  46.00     to  47.00    
RIV   no.    1 value from time series:   101.00     for time:  46.00     to  47.00    
RIV   no.    2 value from time series:   101.00     for time:  46.00     to  47.00    
RIV   no.    3 value from time series:   111.50     for time:  46.00     to  47.00    
RIV   no.    4 value from time series:   111.50     for time:  46.00     to  47.00    
RIV   no.    5 value from time series:   115.10     for time:  46.00     to  47.00    
RIV   no.    6 value from time series:   115.10     for time:  46.00     to  47.00    
RIV   no.    7 value from time series:   104.00     for time:  46.00     to  47.00    
RIV   no.    8 value from time series:   104.00     for time:  46.00     to  47.00    
RIV   no.    9 value from time series:   113.50     for time:  46.00     to  47.00    
RIV   no.   10 value from time series:   113.50     for time:  46.00     to  47.00    

 NO OUTPUT CONTROL FOR STRESS PERIOD    3   TIME STEP   15
WEL   no.    2 value from time series:   0.0000     for time:  47.00     to  48.00    
WEL   no.    3 value from time series:   0.0000     for time:  47.00     to  48.00    
RIV   no.    1 value from time series:   101.00     for time:  47.00     to  48.00    
RIV   no.    2 value from time series:   101.00     for time:  47.00     to  48.00    
RIV   no.    3 value from time series:   111.50     for time:  47.00     to  48.00    
RIV   no.    4 value from time series:   111.50     for time:  47.00     to  48.00    
RIV   no.    5 value from time series:   115.10     for time:  47.00     to  48.00    
RIV   no.    6 value from time series:   115.10     for time:  47.00     to  48.00    
RIV   no.    7 value from time series:   104.00     for time:  47.00     to  48.00    
RIV   no.    8 value from time series:   104.00     for time:  47.00     to  48.00    
RIV   no.    9 value from time series:   113.50     for time:  47.00     to  48.00    
RIV   no.   10 value from time series:   113.50     for time:  47.00     to  48.00    
WEL   no.    2 value from time series:   0.0000     for time:  47.00     to  48.00    
WEL   no.    3 value from time series:   0.0000     for time:  47.00     to  48.00    
RIV   no.    1 value from time series:   101.00     for time:  47.00     to  48.00    
RIV   no.    2 value from time series:   101.00     for time:  47.00     to  48.00    
RIV   no.    3 value from time series:   111.50     for time:  47.00     to  48.00    
RIV   no.    4 value from time series:   111.50     for time:  47.00     to  48.00    
RIV   no.    5 value from time series:   115.10     for time:  47.00     to  48.00    
RIV   no.    6 value from time series:   115.10     for time:  47.00     to  48.00    
RIV   no.    7 value from time series:   104.00     for time:  47.00     to  48.00    
RIV   no.    8 value from time series:   104.00     for time:  47.00     to  48.00    
RIV   no.    9 value from time series:   113.50     for time:  47.00     to  48.00    
RIV   no.   10 value from time series:   113.50     for time:  47.00     to  48.00    

 NO OUTPUT CONTROL FOR STRESS PERIOD    3   TIME STEP   16
WEL   no.    2 value from time series:   0.0000     for time:  48.00     to  49.00    
WEL   no.    3 value from time series:   0.0000     for time:  48.00     to  49.00    
RIV   no.    1 value from time series:   101.00     for time:  48.00     to  49.00    
RIV   no.    2 value from time series:   101.00     for time:  48.00     to  49.00    
RIV   no.    3 value from time series:   111.50     for time:  48.00     to  49.00    
RIV   no.    4 value from time series:   111.50     for time:  48.00     to  49.00    
RIV   no.    5 value from time series:   115.10     for time:  48.00     to  49.00    
RIV   no.    6 value from time series:   115.10     for time:  48.00     to  49.00    
RIV   no.    7 value from time series:   104.00     for time:  48.00     to  49.00    
RIV   no.    8 value from time series:   104.00     for time:  48.00     to  49.00    
RIV   no.    9 value from time series:   113.50     for time:  48.00     to  49.00    
RIV   no.   10 value from time series:   113.50     for time:  48.00     to  49.00    
WEL   no.    2 value from time series:   0.0000     for time:  48.00     to  49.00    
WEL   no.    3 value from time series:   0.0000     for time:  48.00     to  49.00    
RIV   no.    1 value from time series:   101.00     for time:  48.00     to  49.00    
RIV   no.    2 value from time series:   101.00     for time:  48.00     to  49.00    
RIV   no.    3 value from time series:   111.50     for time:  48.00     to  49.00    
RIV   no.    4 value from time series:   111.50     for time:  48.00     to  49.00    
RIV   no.    5 value from time series:   115.10     for time:  48.00     to  49.00    
RIV   no.    6 value from time series:   115.10     for time:  48.00     to  49.00    
RIV   no.    7 value from time series:   104.00     for time:  48.00     to  49.00    
RIV   no.    8 value from time series:   104.00     for time:  48.00     to  49.00    
RIV   no.    9 value from time series:   113.50     for time:  48.00     to  49.00    
RIV   no.   10 value from time series:   113.50     for time:  48.00     to  49.00    

 NO OUTPUT CONTROL FOR STRESS PERIOD    3   TIME STEP   17
WEL   no.    2 value from time series:   0.0000     for time:  49.00     to  50.00    
WEL   no.    3 value from time series:   0.0000     for time:  49.00     to  50.00    
RIV   no.    1 value from time series:   101.00     for time:  49.00     to  50.00    
RIV   no.    2 value from time series:   101.00     for time:  49.00     to  50.00    
RIV   no.    3 value from time series:   111.50     for time:  49.00     to  50.00    
RIV   no.    4 value from time series:   111.50     for time:  49.00     to  50.00    
RIV   no.    5 value from time series:   115.10     for time:  49.00     to  50.00    
RIV   no.    6 value from time series:   115.10     for time:  49.00     to  50.00    
RIV   no.    7 value from time series:   104.00     for time:  49.00     to  50.00    
RIV   no.    8 value from time series:   104.00     for time:  49.00     to  50.00    
RIV   no.    9 value from time series:   113.50     for time:  49.00     to  50.00    
RIV   no.   10 value from time series:   113.50     for time:  49.00     to  50.00    
WEL   no.    2 value from time series:   0.0000     for time:  49.00     to  50.00    
WEL   no.    3 value from time series:   0.0000     for time:  49.00     to  50.00    
RIV   no.    1 value from time series:   101.00     for time:  49.00     to  50.00    
RIV   no.    2 value from time series:   101.00     for time:  49.00     to  50.00    
RIV   no.    3 value from time series:   111.50     for time:  49.00     to  50.00    
RIV   no.    4 value from time series:   111.50     for time:  49.00     to  50.00    
RIV   no.    5 value from time series:   115.10     for time:  49.00     to  50.00    
RIV   no.    6 value from time series:   115.10     for time:  49.00     to  50.00    
RIV   no.    7 value from time series:   104.00     for time:  49.00     to  50.00    
RIV   no.    8 value from time series:   104.00     for time:  49.00     to  50.00    
RIV   no.    9 value from time series:   113.50     for time:  49.00     to  50.00    
RIV   no.   10 value from time series:   113.50     for time:  49.00     to  50.00    

 NO OUTPUT CONTROL FOR STRESS PERIOD    3   TIME STEP   18
WEL   no.    2 value from time series:   0.0000     for time:  50.00     to  51.00    
WEL   no.    3 value from time series:   0.0000     for time:  50.00     to  51.00    
RIV   no.    1 value from time series:   101.00     for time:  50.00     to  51.00    
RIV   no.    2 value from time series:   101.00     for time:  50.00     to  51.00    
RIV   no.    3 value from time series:   111.50     for time:  50.00     to  51.00    
RIV   no.    4 value from time series:   111.50     for time:  50.00     to  51.00    
RIV   no.    5 value from time series:   115.10     for time:  50.00     to  51.00    
RIV   no.    6 value from time series:   115.10     for time:  50.00     to  51.00    
RIV   no.    7 value from time series:   104.00     for time:  50.00     to  51.00    
RIV   no.    8 value from time series:   104.00     for time:  50.00     to  51.00    
RIV   no.    9 value from time series:   113.50     for time:  50.00     to  51.00    
RIV   no.   10 value from time series:   113.50     for time:  50.00     to  51.00    
WEL   no.    2 value from time series:   0.0000     for time:  50.00     to  51.00    
WEL   no.    3 value from time series:   0.0000     for time:  50.00     to  51.00    
RIV   no.    1 value from time series:   101.00     for time:  50.00     to  51.00    
RIV   no.    2 value from time series:   101.00     for time:  50.00     to  51.00    
RIV   no.    3 value from time series:   111.50     for time:  50.00     to  51.00    
RIV   no.    4 value from time series:   111.50     for time:  50.00     to  51.00    
RIV   no.    5 value from time series:   115.10     for time:  50.00     to  51.00    
RIV   no.    6 value from time series:   115.10     for time:  50.00     to  51.00    
RIV   no.    7 value from time series:   104.00     for time:  50.00     to  51.00    
RIV   no.    8 value from time series:   104.00     for time:  50.00     to  51.00    
RIV   no.    9 value from time series:   113.50     for time:  50.00     to  51.00    
RIV   no.   10 value from time series:   113.50     for time:  50.00     to  51.00    

 NO OUTPUT CONTROL FOR STRESS PERIOD    3   TIME STEP   19
WEL   no.    2 value from time series:   0.0000     for time:  51.00     to  52.00    
WEL   no.    3 value from time series:   0.0000     for time:  51.00     to  52.00    
RIV   no.    1 value from time series:   101.00     for time:  51.00     to  52.00    
RIV   no.    2 value from time series:   101.00     for time:  51.00     to  52.00    
RIV   no.    3 value from time series:   111.50     for time:  51.00     to  52.00    
RIV   no.    4 value from time series:   111.50     for time:  51.00     to  52.00    
RIV   no.    5 value from time series:   115.10     for time:  51.00     to  52.00    
RIV   no.    6 value from time series:   115.10     for time:  51.00     to  52.00    
RIV   no.    7 value from time series:   104.00     for time:  51.00     to  52.00    
RIV   no.    8 value from time series:   104.00     for time:  51.00     to  52.00    
RIV   no.    9 value from time series:   113.50     for time:  51.00     to  52.00    
RIV   no.   10 value from time series:   113.50     for time:  51.00     to  52.00    
WEL   no.    2 value from time series:   0.0000     for time:  51.00     to  52.00    
WEL   no.    3 value from time series:   0.0000     for time:  51.00     to  52.00    
RIV   no.    1 value from time series:   101.00     for time:  51.00     to  52.00    
RIV   no.    2 value from time series:   101.00     for time:  51.00     to  52.00    
RIV   no.    3 value from time series:   111.50     for time:  51.00     to  52.00    
RIV   no.    4 value from time series:   111.50     for time:  51.00     to  52.00    
RIV   no.    5 value from time series:   115.10     for time:  51.00     to  52.00    
RIV   no.    6 value from time series:   115.10     for time:  51.00     to  52.00    
RIV   no.    7 value from time series:   104.00     for time:  51.00     to  52.00    
RIV   no.    8 value from time series:   104.00     for time:  51.00     to  52.00    
RIV   no.    9 value from time series:   113.50     for time:  51.00     to  52.00    
RIV   no.   10 value from time series:   113.50     for time:  51.00     to  52.00    

 NO OUTPUT CONTROL FOR STRESS PERIOD    3   TIME STEP   20
WEL   no.    2 value from time series:   0.0000     for time:  52.00     to  53.00    
WEL   no.    3 value from time series:   0.0000     for time:  52.00     to  53.00    
RIV   no.    1 value from time series:   101.00     for time:  52.00     to  53.00    
RIV   no.    2 value from time series:   101.00     for time:  52.00     to  53.00    
RIV   no.    3 value from time series:   111.50     for time:  52.00     to  53.00    
RIV   no.    4 value from time series:   111.50     for time:  52.00     to  53.00    
RIV   no.    5 value from time series:   115.10     for time:  52.00     to  53.00    
RIV   no.    6 value from time series:   115.10     for time:  52.00     to  53.00    
RIV   no.    7 value from time series:   104.00     for time:  52.00     to  53.00    
RIV   no.    8 value from time series:   104.00     for time:  52.00     to  53.00    
RIV   no.    9 value from time series:   113.50     for time:  52.00     to  53.00    
RIV   no.   10 value from time series:   113.50     for time:  52.00     to  53.00    
WEL   no.    2 value from time series:   0.0000     for time:  52.00     to  53.00    
WEL   no.    3 value from time series:   0.0000     for time:  52.00     to  53.00    
RIV   no.    1 value from time series:   101.00     for time:  52.00     to  53.00    
RIV   no.    2 value from time series:   101.00     for time:  52.00     to  53.00    
RIV   no.    3 value from time series:   111.50     for time:  52.00     to  53.00    
RIV   no.    4 value from time series:   111.50     for time:  52.00     to  53.00    
RIV   no.    5 value from time series:   115.10     for time:  52.00     to  53.00    
RIV   no.    6 value from time series:   115.10     for time:  52.00     to  53.00    
RIV   no.    7 value from time series:   104.00     for time:  52.00     to  53.00    
RIV   no.    8 value from time series:   104.00     for time:  52.00     to  53.00    
RIV   no.    9 value from time series:   113.50     for time:  52.00     to  53.00    
RIV   no.   10 value from time series:   113.50     for time:  52.00     to  53.00    

 NO OUTPUT CONTROL FOR STRESS PERIOD    3   TIME STEP   21
WEL   no.    2 value from time series:   0.0000     for time:  53.00     to  54.00    
WEL   no.    3 value from time series:   0.0000     for time:  53.00     to  54.00    
RIV   no.    1 value from time series:   101.00     for time:  53.00     to  54.00    
RIV   no.    2 value from time series:   101.00     for time:  53.00     to  54.00    
RIV   no.    3 value from time series:   111.50     for time:  53.00     to  54.00    
RIV   no.    4 value from time series:   111.50     for time:  53.00     to  54.00    
RIV   no.    5 value from time series:   115.10     for time:  53.00     to  54.00    
RIV   no.    6 value from time series:   115.10     for time:  53.00     to  54.00    
RIV   no.    7 value from time series:   104.00     for time:  53.00     to  54.00    
RIV   no.    8 value from time series:   104.00     for time:  53.00     to  54.00    
RIV   no.    9 value from time series:   113.50     for time:  53.00     to  54.00    
RIV   no.   10 value from time series:   113.50     for time:  53.00     to  54.00    
WEL   no.    2 value from time series:   0.0000     for time:  53.00     to  54.00    
WEL   no.    3 value from time series:   0.0000     for time:  53.00     to  54.00    
RIV   no.    1 value from time series:   101.00     for time:  53.00     to  54.00    
RIV   no.    2 value from time series:   101.00     for time:  53.00     to  54.00    
RIV   no.    3 value from time series:   111.50     for time:  53.00     to  54.00    
RIV   no.    4 value from time series:   111.50     for time:  53.00     to  54.00    
RIV   no.    5 value from time series:   115.10     for time:  53.00     to  54.00    
RIV   no.    6 value from time series:   115.10     for time:  53.00     to  54.00    
RIV   no.    7 value from time series:   104.00     for time:  53.00     to  54.00    
RIV   no.    8 value from time series:   104.00     for time:  53.00     to  54.00    
RIV   no.    9 value from time series:   113.50     for time:  53.00     to  54.00    
RIV   no.   10 value from time series:   113.50     for time:  53.00     to  54.00    

 NO OUTPUT CONTROL FOR STRESS PERIOD    3   TIME STEP   22
WEL   no.    2 value from time series:   0.0000     for time:  54.00     to  55.00    
WEL   no.    3 value from time series:   0.0000     for time:  54.00     to  55.00    
RIV   no.    1 value from time series:   101.00     for time:  54.00     to  55.00    
RIV   no.    2 value from time series:   101.00     for time:  54.00     to  55.00    
RIV   no.    3 value from time series:   111.50     for time:  54.00     to  55.00    
RIV   no.    4 value from time series:   111.50     for time:  54.00     to  55.00    
RIV   no.    5 value from time series:   115.10     for time:  54.00     to  55.00    
RIV   no.    6 value from time series:   115.10     for time:  54.00     to  55.00    
RIV   no.    7 value from time series:   104.00     for time:  54.00     to  55.00    
RIV   no.    8 value from time series:   104.00     for time:  54.00     to  55.00    
RIV   no.    9 value from time series:   113.50     for time:  54.00     to  55.00    
RIV   no.   10 value from time series:   113.50     for time:  54.00     to  55.00    
WEL   no.    2 value from time series:   0.0000     for time:  54.00     to  55.00    
WEL   no.    3 value from time series:   0.0000     for time:  54.00     to  55.00    
RIV   no.    1 value from time series:   101.00     for time:  54.00     to  55.00    
RIV   no.    2 value from time series:   101.00     for time:  54.00     to  55.00    
RIV   no.    3 value from time series:   111.50     for time:  54.00     to  55.00    
RIV   no.    4 value from time series:   111.50     for time:  54.00     to  55.00    
RIV   no.    5 value from time series:   115.10     for time:  54.00     to  55.00    
RIV   no.    6 value from time series:   115.10     for time:  54.00     to  55.00    
RIV   no.    7 value from time series:   104.00     for time:  54.00     to  55.00    
RIV   no.    8 value from time series:   104.00     for time:  54.00     to  55.00    
RIV   no.    9 value from time series:   113.50     for time:  54.00     to  55.00    
RIV   no.   10 value from time series:   113.50     for time:  54.00     to  55.00    

 NO OUTPUT CONTROL FOR STRESS PERIOD    3   TIME STEP   23
WEL   no.    2 value from time series:   0.0000     for time:  55.00     to  56.00    
WEL   no.    3 value from time series:   0.0000     for time:  55.00     to  56.00    
RIV   no.    1 value from time series:   101.00     for time:  55.00     to  56.00    
RIV   no.    2 value from time series:   101.00     for time:  55.00     to  56.00    
RIV   no.    3 value from time series:   111.50     for time:  55.00     to  56.00    
RIV   no.    4 value from time series:   111.50     for time:  55.00     to  56.00    
RIV   no.    5 value from time series:   115.10     for time:  55.00     to  56.00    
RIV   no.    6 value from time series:   115.10     for time:  55.00     to  56.00    
RIV   no.    7 value from time series:   104.00     for time:  55.00     to  56.00    
RIV   no.    8 value from time series:   104.00     for time:  55.00     to  56.00    
RIV   no.    9 value from time series:   113.50     for time:  55.00     to  56.00    
RIV   no.   10 value from time series:   113.50     for time:  55.00     to  56.00    
WEL   no.    2 value from time series:   0.0000     for time:  55.00     to  56.00    
WEL   no.    3 value from time series:   0.0000     for time:  55.00     to  56.00    
RIV   no.    1 value from time series:   101.00     for time:  55.00     to  56.00    
RIV   no.    2 value from time series:   101.00     for time:  55.00     to  56.00    
RIV   no.    3 value from time series:   111.50     for time:  55.00     to  56.00    
RIV   no.    4 value from time series:   111.50     for time:  55.00     to  56.00    
RIV   no.    5 value from time series:   115.10     for time:  55.00     to  56.00    
RIV   no.    6 value from time series:   115.10     for time:  55.00     to  56.00    
RIV   no.    7 value from time series:   104.00     for time:  55.00     to  56.00    
RIV   no.    8 value from time series:   104.00     for time:  55.00     to  56.00    
RIV   no.    9 value from time series:   113.50     for time:  55.00     to  56.00    
RIV   no.   10 value from time series:   113.50     for time:  55.00     to  56.00    

 NO OUTPUT CONTROL FOR STRESS PERIOD    3   TIME STEP   24
WEL   no.    2 value from time series:   0.0000     for time:  56.00     to  57.00    
WEL   no.    3 value from time series:   0.0000     for time:  56.00     to  57.00    
RIV   no.    1 value from time series:   101.00     for time:  56.00     to  57.00    
RIV   no.    2 value from time series:   101.00     for time:  56.00     to  57.00    
RIV   no.    3 value from time series:   111.50     for time:  56.00     to  57.00    
RIV   no.    4 value from time series:   111.50     for time:  56.00     to  57.00    
RIV   no.    5 value from time series:   115.10     for time:  56.00     to  57.00    
RIV   no.    6 value from time series:   115.10     for time:  56.00     to  57.00    
RIV   no.    7 value from time series:   104.00     for time:  56.00     to  57.00    
RIV   no.    8 value from time series:   104.00     for time:  56.00     to  57.00    
RIV   no.    9 value from time series:   113.50     for time:  56.00     to  57.00    
RIV   no.   10 value from time series:   113.50     for time:  56.00     to  57.00    
WEL   no.    2 value from time series:   0.0000     for time:  56.00     to  57.00    
WEL   no.    3 value from time series:   0.0000     for time:  56.00     to  57.00    
RIV   no.    1 value from time series:   101.00     for time:  56.00     to  57.00    
RIV   no.    2 value from time series:   101.00     for time:  56.00     to  57.00    
RIV   no.    3 value from time series:   111.50     for time:  56.00     to  57.00    
RIV   no.    4 value from time series:   111.50     for time:  56.00     to  57.00    
RIV   no.    5 value from time series:   115.10     for time:  56.00     to  57.00    
RIV   no.    6 value from time series:   115.10     for time:  56.00     to  57.00    
RIV   no.    7 value from time series:   104.00     for time:  56.00     to  57.00    
RIV   no.    8 value from time series:   104.00     for time:  56.00     to  57.00    
RIV   no.    9 value from time series:   113.50     for time:  56.00     to  57.00    
RIV   no.   10 value from time series:   113.50     for time:  56.00     to  57.00    

 NO OUTPUT CONTROL FOR STRESS PERIOD    3   TIME STEP   25
WEL   no.    2 value from time series:   0.0000     for time:  57.00     to  58.00    
WEL   no.    3 value from time series:   0.0000     for time:  57.00     to  58.00    
RIV   no.    1 value from time series:   101.00     for time:  57.00     to  58.00    
RIV   no.    2 value from time series:   101.00     for time:  57.00     to  58.00    
RIV   no.    3 value from time series:   111.50     for time:  57.00     to  58.00    
RIV   no.    4 value from time series:   111.50     for time:  57.00     to  58.00    
RIV   no.    5 value from time series:   115.10     for time:  57.00     to  58.00    
RIV   no.    6 value from time series:   115.10     for time:  57.00     to  58.00    
RIV   no.    7 value from time series:   104.00     for time:  57.00     to  58.00    
RIV   no.    8 value from time series:   104.00     for time:  57.00     to  58.00    
RIV   no.    9 value from time series:   113.50     for time:  57.00     to  58.00    
RIV   no.   10 value from time series:   113.50     for time:  57.00     to  58.00    
WEL   no.    2 value from time series:   0.0000     for time:  57.00     to  58.00    
WEL   no.    3 value from time series:   0.0000     for time:  57.00     to  58.00    
RIV   no.    1 value from time series:   101.00     for time:  57.00     to  58.00    
RIV   no.    2 value from time series:   101.00     for time:  57.00     to  58.00    
RIV   no.    3 value from time series:   111.50     for time:  57.00     to  58.00    
RIV   no.    4 value from time series:   111.50     for time:  57.00     to  58.00    
RIV   no.    5 value from time series:   115.10     for time:  57.00     to  58.00    
RIV   no.    6 value from time series:   115.10     for time:  57.00     to  58.00    
RIV   no.    7 value from time series:   104.00     for time:  57.00     to  58.00    
RIV   no.    8 value from time series:   104.00     for time:  57.00     to  58.00    
RIV   no.    9 value from time series:   113.50     for time:  57.00     to  58.00    
RIV   no.   10 value from time series:   113.50     for time:  57.00     to  58.00    

 NO OUTPUT CONTROL FOR STRESS PERIOD    3   TIME STEP   26
WEL   no.    2 value from time series:   0.0000     for time:  58.00     to  59.00    
WEL   no.    3 value from time series:   0.0000     for time:  58.00     to  59.00    
RIV   no.    1 value from time series:   101.00     for time:  58.00     to  59.00    
RIV   no.    2 value from time series:   101.00     for time:  58.00     to  59.00    
RIV   no.    3 value from time series:   111.50     for time:  58.00     to  59.00    
RIV   no.    4 value from time series:   111.50     for time:  58.00     to  59.00    
RIV   no.    5 value from time series:   115.10     for time:  58.00     to  59.00    
RIV   no.    6 value from time series:   115.10     for time:  58.00     to  59.00    
RIV   no.    7 value from time series:   104.00     for time:  58.00     to  59.00    
RIV   no.    8 value from time series:   104.00     for time:  58.00     to  59.00    
RIV   no.    9 value from time series:   113.50     for time:  58.00     to  59.00    
RIV   no.   10 value from time series:   113.50     for time:  58.00     to  59.00    
WEL   no.    2 value from time series:   0.0000     for time:  58.00     to  59.00    
WEL   no.    3 value from time series:   0.0000     for time:  58.00     to  59.00    
RIV   no.    1 value from time series:   101.00     for time:  58.00     to  59.00    
RIV   no.    2 value from time series:   101.00     for time:  58.00     to  59.00    
RIV   no.    3 value from time series:   111.50     for time:  58.00     to  59.00    
RIV   no.    4 value from time series:   111.50     for time:  58.00     to  59.00    
RIV   no.    5 value from time series:   115.10     for time:  58.00     to  59.00    
RIV   no.    6 value from time series:   115.10     for time:  58.00     to  59.00    
RIV   no.    7 value from time series:   104.00     for time:  58.00     to  59.00    
RIV   no.    8 value from time series:   104.00     for time:  58.00     to  59.00    
RIV   no.    9 value from time series:   113.50     for time:  58.00     to  59.00    
RIV   no.   10 value from time series:   113.50     for time:  58.00     to  59.00    

 NO OUTPUT CONTROL FOR STRESS PERIOD    3   TIME STEP   27
WEL   no.    2 value from time series:   0.0000     for time:  59.00     to  60.00    
WEL   no.    3 value from time series:   0.0000     for time:  59.00     to  60.00    
RIV   no.    1 value from time series:   101.00     for time:  59.00     to  60.00    
RIV   no.    2 value from time series:   101.00     for time:  59.00     to  60.00    
RIV   no.    3 value from time series:   111.50     for time:  59.00     to  60.00    
RIV   no.    4 value from time series:   111.50     for time:  59.00     to  60.00    
RIV   no.    5 value from time series:   115.10     for time:  59.00     to  60.00    
RIV   no.    6 value from time series:   115.10     for time:  59.00     to  60.00    
RIV   no.    7 value from time series:   104.00     for time:  59.00     to  60.00    
RIV   no.    8 value from time series:   104.00     for time:  59.00     to  60.00    
RIV   no.    9 value from time series:   113.50     for time:  59.00     to  60.00    
RIV   no.   10 value from time series:   113.50     for time:  59.00     to  60.00    
WEL   no.    2 value from time series:   0.0000     for time:  59.00     to  60.00    
WEL   no.    3 value from time series:   0.0000     for time:  59.00     to  60.00    
RIV   no.    1 value from time series:   101.00     for time:  59.00     to  60.00    
RIV   no.    2 value from time series:   101.00     for time:  59.00     to  60.00    
RIV   no.    3 value from time series:   111.50     for time:  59.00     to  60.00    
RIV   no.    4 value from time series:   111.50     for time:  59.00     to  60.00    
RIV   no.    5 value from time series:   115.10     for time:  59.00     to  60.00    
RIV   no.    6 value from time series:   115.10     for time:  59.00     to  60.00    
RIV   no.    7 value from time series:   104.00     for time:  59.00     to  60.00    
RIV   no.    8 value from time series:   104.00     for time:  59.00     to  60.00    
RIV   no.    9 value from time series:   113.50     for time:  59.00     to  60.00    
RIV   no.   10 value from time series:   113.50     for time:  59.00     to  60.00    

 OUTPUT CONTROL FOR STRESS PERIOD    3   TIME STEP   28
    PRINT BUDGET
    SAVE BUDGET
    SAVE HEAD
    SAVE HEAD FOR ALL LAYERS
 UBDSV1 SAVING          STORAGE ON UNIT   1016 AT TIME STEP     28, STRESS PERIOD      3
 UBDSV1 SAVING FLOW RIGHT FACE  ON UNIT   1016 AT TIME STEP     28, STRESS PERIOD      3
 UBDSV1 SAVING FLOW FRONT FACE  ON UNIT   1016 AT TIME STEP     28, STRESS PERIOD      3
 UBDSV1 SAVING FLOW LOWER FACE  ON UNIT   1016 AT TIME STEP     28, STRESS PERIOD      3
 UBDSV4 SAVING WELLS NEAR RIVER ON UNIT   1016 AT TIME STEP     28, STRESS PERIOD      3

 WELLS NEAR RIVER   PERIOD  3   STEP 28
 BOUNDARY      1   LAYER   1   ROW     2   COL     3   RATE    -50.0000    
 BOUNDARY      2   LAYER   2   ROW     3   COL     4   RATE     0.00000      WELL_1
 BOUNDARY      3   LAYER   2   ROW     8   COL     4   RATE     0.00000      WELL_2
 UBDSV4 SAVING RIVER            ON UNIT   1016 AT TIME STEP     28, STRESS PERIOD      3

 RIVER              PERIOD  3   STEP 28
 BOUNDARY      1   LAYER   1   ROW     1   COL    15   RATE    -4808.29    
 BOUNDARY      2   LAYER   1   ROW     2   COL    15   RATE    -5925.35      RIV2
 BOUNDARY      3   LAYER   1   ROW     3   COL    15   RATE    -2179.65      RIV3
 BOUNDARY      4   LAYER   1   ROW     4   COL    15   RATE    -3639.65    
 BOUNDARY      5   LAYER   1   ROW     5   COL    15   RATE    -2281.13    
 BOUNDARY      6   LAYER   1   ROW     6   COL    15   RATE    -1632.36    
 BOUNDARY      7   LAYER   1   ROW     7   COL    15   RATE    -6114.00      RIVX
 BOUNDARY      8   LAYER   1   ROW     8   COL    15   RATE    -5955.01      RIVX
 BOUNDARY      9   LAYER   1   ROW     9   COL    15   RATE    -2154.93      RIVX
 BOUNDARY     10   LAYER   1   ROW    10   COL    15   RATE    -3052.76    

 GHB LAKES          PERIOD  3   STEP 28
 BOUNDARY      1   LAYER   1   ROW     3   COL     1   RATE    -14540.1    
 BOUNDARY      2   LAYER   1   ROW     7   COL     1   RATE    -1895.26      GHB2_UPPER
 BOUNDARY      3   LAYER   1   ROW     7   COL     1   RATE    -13254.5      GHB2_LOWER
 UBDSV4 SAVING RECHARGE         ON UNIT   1016 AT TIME STEP     28, STRESS PERIOD      3

 RECHARGE           PERIOD  3   STEP 28
 BOUNDARY      1   LAYER   1   ROW     1   COL     1   RATE     623.958    
 BOUNDARY      2   LAYER   1   ROW     1   COL     2   RATE     623.958    
 BOUNDARY      3   LAYER   1   ROW     1   COL     3   RATE     623.958    
 BOUNDARY      4   LAYER   1   ROW     1   COL     4   RATE     623.958    
 BOUNDARY      5   LAYER   1   ROW     1   COL     5   RATE     623.958    
 BOUNDARY      6   LAYER   1   ROW     1   COL     6   RATE     623.958    
 BOUNDARY      7   LAYER   1   ROW     1   COL     7   RATE     623.958    
 BOUNDARY      8   LAYER   1   ROW     1   COL     8   RATE     623.958    
 BOUNDARY      9   LAYER   1   ROW     1   COL     9   RATE     623.958    
 BOUNDARY     10   LAYER   1   ROW     1   COL    10   RATE     623.958    
 BOUNDARY     11   LAYER   1   ROW     1   COL    11   RATE     623.958    
 BOUNDARY     12   LAYER   1   ROW     1   COL    12   RATE     623.958    
 BOUNDARY     13   LAYER   1   ROW     1   COL    13   RATE     623.958    
 BOUNDARY     14   LAYER   1   ROW     1   COL    14   RATE     623.958    
 BOUNDARY     15   LAYER   1   ROW     1   COL    15   RATE     623.958    
 BOUNDARY     16   LAYER   1   ROW     2   COL     1   RATE     623.958    
 BOUNDARY     17   LAYER   1   ROW     2   COL     2   RATE     623.958    
 BOUNDARY     18   LAYER   1   ROW     2   COL     3   RATE     623.958    
 BOUNDARY     19   LAYER   1   ROW     2   COL     4   RATE     623.958    
 BOUNDARY     20   LAYER   1   ROW     2   COL     5   RATE     623.958    
 BOUNDARY     21   LAYER   1   ROW     2   COL     6   RATE     623.958    
 BOUNDARY     22   LAYER   1   ROW     2   COL     7   RATE     623.958    
 BOUNDARY     23   LAYER   1   ROW     2   COL     8   RATE     623.958    
 BOUNDARY     24   LAYER   1   ROW     2   COL     9   RATE     623.958    
 BOUNDARY     25   LAYER   1   ROW     2   COL    10   RATE     623.958    
 BOUNDARY     26   LAYER   1   ROW     2   COL    11   RATE     623.958    
 BOUNDARY     27   LAYER   1   ROW     2   COL    12   RATE     623.958    
 BOUNDARY     28   LAYER   1   ROW     2   COL    13   RATE     623.958    
 BOUNDARY     29   LAYER   1   ROW     2   COL    14   RATE     623.958    
 BOUNDARY     30   LAYER   1   ROW     2   COL    15   RATE     623.958    
 BOUNDARY     31   LAYER   1   ROW     3   COL     1   RATE     623.958    
 BOUNDARY     32   LAYER   1   ROW     3   COL     2   RATE     623.958    
 BOUNDARY     33   LAYER   1   ROW     3   COL     3   RATE     623.958    
 BOUNDARY     34   LAYER   1   ROW     3   COL     4   RATE     623.958    
 BOUNDARY     35   LAYER   1   ROW     3   COL     5   RATE     623.958    
 BOUNDARY     36   LAYER   1   ROW     3   COL     6   RATE     623.958    
 BOUNDARY     37   LAYER   1   ROW     3   COL     7   RATE     623.958    
 BOUNDARY     38   LAYER   1   ROW     3   COL     8   RATE     623.958    
 BOUNDARY     39   LAYER   1   ROW     3   COL     9   RATE     623.958    
 BOUNDARY     40   LAYER   1   ROW     3   COL    10   RATE     623.958    
 BOUNDARY     41   LAYER   1   ROW     3   COL    11   RATE     623.958    
 BOUNDARY     42   LAYER   1   ROW     3   COL    12   RATE     623.958    
 BOUNDARY     43   LAYER   1   ROW     3   COL    13   RATE     623.958    
 BOUNDARY     44   LAYER   1   ROW     3   COL    14   RATE     623.958    
 BOUNDARY     45   LAYER   1   ROW     3   COL    15   RATE     623.958    
 BOUNDARY     46   LAYER   1   ROW     4   COL     1   RATE     623.958    
 BOUNDARY     47   LAYER   1   ROW     4   COL     2   RATE     623.958    
 BOUNDARY     48   LAYER   1   ROW     4   COL     3   RATE     623.958    
 BOUNDARY     49   LAYER   1   ROW     4   COL     4   RATE     623.958    
 BOUNDARY     50   LAYER   1   ROW     4   COL     5   RATE     623.958    
 BOUNDARY     51   LAYER   1   ROW     4   COL     6   RATE     623.958    
 BOUNDARY     52   LAYER   1   ROW     4   COL     7   RATE     623.958    
 BOUNDARY     53   LAYER   1   ROW     4   COL     8   RATE     623.958    
 BOUNDARY     54   LAYER   1   ROW     4   COL     9   RATE     623.958    
 BOUNDARY     55   LAYER   1   ROW     4   COL    10   RATE     623.958    
 BOUNDARY     56   LAYER   1   ROW     4   COL    11   RATE     623.958    
 BOUNDARY     57   LAYER   1   ROW     4   COL    12   RATE     623.958    
 BOUNDARY     58   LAYER   1   ROW     4   COL    13   RATE     623.958    
 BOUNDARY     59   LAYER   1   ROW     4   COL    14   RATE     623.958    
 BOUNDARY     60   LAYER   1   ROW     4   COL    15   RATE     623.958    
 BOUNDARY     61   LAYER   1   ROW     5   COL     1   RATE     623.958    
 BOUNDARY     62   LAYER   1   ROW     5   COL     2   RATE     623.958    
 BOUNDARY     63   LAYER   1   ROW     5   COL     3   RATE     623.958    
 BOUNDARY     64   LAYER   1   ROW     5   COL     4   RATE     623.958    
 BOUNDARY     65   LAYER   1   ROW     5   COL     5   RATE     623.958    
 BOUNDARY     66   LAYER   1   ROW     5   COL     6   RATE     623.958    
 BOUNDARY     67   LAYER   1   ROW     5   COL     7   RATE     623.958    
 BOUNDARY     68   LAYER   1   ROW     5   COL     8   RATE     623.958    
 BOUNDARY     69   LAYER   1   ROW     5   COL     9   RATE     623.958    
 BOUNDARY     70   LAYER   1   ROW     5   COL    10   RATE     623.958    
 BOUNDARY     71   LAYER   1   ROW     5   COL    11   RATE     623.958    
 BOUNDARY     72   LAYER   1   ROW     5   COL    12   RATE     623.958    
 BOUNDARY     73   LAYER   1   ROW     5   COL    13   RATE     623.958    
 BOUNDARY     74   LAYER   1   ROW     5   COL    14   RATE     623.958    
 BOUNDARY     75   LAYER   1   ROW     5   COL    15   RATE     623.958    
 BOUNDARY     76   LAYER   1   ROW     6   COL     1   RATE     623.958    
 BOUNDARY     77   LAYER   1   ROW     6   COL     2   RATE     623.958    
 BOUNDARY     78   LAYER   1   ROW     6   COL     3   RATE     623.958    
 BOUNDARY     79   LAYER   1   ROW     6   COL     4   RATE     623.958    
 BOUNDARY     80   LAYER   1   ROW     6   COL     5   RATE     623.958    
 BOUNDARY     81   LAYER   1   ROW     6   COL     6   RATE     623.958    
 BOUNDARY     82   LAYER   1   ROW     6   COL     7   RATE     623.958    
 BOUNDARY     83   LAYER   1   ROW     6   COL     8   RATE     623.958    
 BOUNDARY     84   LAYER   1   ROW     6   COL     9   RATE     623.958    
 BOUNDARY     85   LAYER   1   ROW     6   COL    10   RATE     623.958    
 BOUNDARY     86   LAYER   1   ROW     6   COL    11   RATE     623.958    
 BOUNDARY     87   LAYER   1   ROW     6   COL    12   RATE     623.958    
 BOUNDARY     88   LAYER   1   ROW     6   COL    13   RATE     623.958    
 BOUNDARY     89   LAYER   1   ROW     6   COL    14   RATE     623.958    
 BOUNDARY     90   LAYER   1   ROW     6   COL    15   RATE     623.958    
 BOUNDARY     91   LAYER   1   ROW     7   COL     1   RATE     623.958    
 BOUNDARY     92   LAYER   1   ROW     7   COL     2   RATE     623.958    
 BOUNDARY     93   LAYER   1   ROW     7   COL     3   RATE     623.958    
 BOUNDARY     94   LAYER   1   ROW     7   COL     4   RATE     623.958    
 BOUNDARY     95   LAYER   1   ROW     7   COL     5   RATE     623.958    
 BOUNDARY     96   LAYER   1   ROW     7   COL     6   RATE     623.958    
 BOUNDARY     97   LAYER   1   ROW     7   COL     7   RATE     623.958    
 BOUNDARY     98   LAYER   1   ROW     7   COL     8   RATE     623.958    
 BOUNDARY     99   LAYER   1   ROW     7   COL     9   RATE     623.958    
 BOUNDARY    100   LAYER   1   ROW     7   COL    10   RATE     623.958    
 BOUNDARY    101   LAYER   1   ROW     7   COL    11   RATE     623.958    
 BOUNDARY    102   LAYER   1   ROW     7   COL    12   RATE     623.958    
 BOUNDARY    103   LAYER   1   ROW     7   COL    13   RATE     623.958    
 BOUNDARY    104   LAYER   1   ROW     7   COL    14   RATE     623.958    
 BOUNDARY    105   LAYER   1   ROW     7   COL    15   RATE     623.958    
 BOUNDARY    106   LAYER   1   ROW     8   COL     1   RATE     623.958    
 BOUNDARY    107   LAYER   1   ROW     8   COL     2   RATE     623.958    
 BOUNDARY    108   LAYER   1   ROW     8   COL     3   RATE     623.958    
 BOUNDARY    109   LAYER   1   ROW     8   COL     4   RATE     623.958    
 BOUNDARY    110   LAYER   1   ROW     8   COL     5   RATE     623.958    
 BOUNDARY    111   LAYER   1   ROW     8   COL     6   RATE     623.958    
 BOUNDARY    112   LAYER   1   ROW     8   COL     7   RATE     623.958    
 BOUNDARY    113   LAYER   1   ROW     8   COL     8   RATE     623.958    
 BOUNDARY    114   LAYER   1   ROW     8   COL     9   RATE     623.958    
 BOUNDARY    115   LAYER   1   ROW     8   COL    10   RATE     623.958    
 BOUNDARY    116   LAYER   1   ROW     8   COL    11   RATE     623.958    
 BOUNDARY    117   LAYER   1   ROW     8   COL    12   RATE     623.958    
 BOUNDARY    118   LAYER   1   ROW     8   COL    13   RATE     623.958    
 BOUNDARY    119   LAYER   1   ROW     8   COL    14   RATE     623.958    
 BOUNDARY    120   LAYER   1   ROW     8   COL    15   RATE     623.958    
 BOUNDARY    121   LAYER   1   ROW     9   COL     1   RATE     623.958    
 BOUNDARY    122   LAYER   1   ROW     9   COL     2   RATE     623.958    
 BOUNDARY    123   LAYER   1   ROW     9   COL     3   RATE     623.958    
 BOUNDARY    124   LAYER   1   ROW     9   COL     4   RATE     623.958    
 BOUNDARY    125   LAYER   1   ROW     9   COL     5   RATE     623.958    
 BOUNDARY    126   LAYER   1   ROW     9   COL     6   RATE     623.958    
 BOUNDARY    127   LAYER   1   ROW     9   COL     7   RATE     623.958    
 BOUNDARY    128   LAYER   1   ROW     9   COL     8   RATE     623.958    
 BOUNDARY    129   LAYER   1   ROW     9   COL     9   RATE     623.958    
 BOUNDARY    130   LAYER   1   ROW     9   COL    10   RATE     623.958    
 BOUNDARY    131   LAYER   1   ROW     9   COL    11   RATE     623.958    
 BOUNDARY    132   LAYER   1   ROW     9   COL    12   RATE     623.958    
 BOUNDARY    133   LAYER   1   ROW     9   COL    13   RATE     623.958    
 BOUNDARY    134   LAYER   1   ROW     9   COL    14   RATE     623.958    
 BOUNDARY    135   LAYER   1   ROW     9   COL    15   RATE     623.958    
 BOUNDARY    136   LAYER   1   ROW    10   COL     1   RATE     623.958    
 BOUNDARY    137   LAYER   1   ROW    10   COL     2   RATE     623.958    
 BOUNDARY    138   LAYER   1   ROW    10   COL     3   RATE     623.958    
 BOUNDARY    139   LAYER   1   ROW    10   COL     4   RATE     623.958    
 BOUNDARY    140   LAYER   1   ROW    10   COL     5   RATE     623.958    
 BOUNDARY    141   LAYER   1   ROW    10   COL     6   RATE     623.958    
 BOUNDARY    142   LAYER   1   ROW    10   COL     7   RATE     623.958    
 BOUNDARY    143   LAYER   1   ROW    10   COL     8   RATE     623.958    
 BOUNDARY    144   LAYER   1   ROW    10   COL     9   RATE     623.958    
 BOUNDARY    145   LAYER   1   ROW    10   COL    10   RATE     623.958    
 BOUNDARY    146   LAYER   1   ROW    10   COL    11   RATE     623.958    
 BOUNDARY    147   LAYER   1   ROW    10   COL    12   RATE     623.958    
 BOUNDARY    148   LAYER   1   ROW    10   COL    13   RATE     623.958    
 BOUNDARY    149   LAYER   1   ROW    10   COL    14   RATE     623.958    
 BOUNDARY    150   LAYER   1   ROW    10   COL    15   RATE     623.958    
 UBDSV4 SAVING ET SEGS          ON UNIT   1016 AT TIME STEP     28, STRESS PERIOD      3

 ET SEGS            PERIOD  3   STEP 28
 BOUNDARY      1   LAYER   1   ROW     1   COL     1   RATE    -2.06085    
 BOUNDARY      2   LAYER   1   ROW     1   COL     2   RATE    -8.05837    
 BOUNDARY      3   LAYER   1   ROW     1   COL     3   RATE    -46.5118    
 BOUNDARY      4   LAYER   1   ROW     1   COL     4   RATE    -87.3958    
 BOUNDARY      5   LAYER   1   ROW     1   COL     5   RATE    -87.3958    
 BOUNDARY      6   LAYER   1   ROW     1   COL     6   RATE    -87.3958    
 BOUNDARY      7   LAYER   1   ROW     1   COL     7   RATE    -87.3958    
 BOUNDARY      8   LAYER   1   ROW     1   COL     8   RATE    -87.3958    
 BOUNDARY      9   LAYER   1   ROW     1   COL     9   RATE    -87.3958    
 BOUNDARY     10   LAYER   1   ROW     1   COL    10   RATE    -87.3958    
 BOUNDARY     11   LAYER   1   ROW     1   COL    11   RATE    -87.3958    
 BOUNDARY     12   LAYER   1   ROW     1   COL    12   RATE    -15.3798    
 BOUNDARY     13   LAYER   1   ROW     1   COL    13   RATE     0.00000    
 BOUNDARY     14   LAYER   1   ROW     1   COL    14   RATE     0.00000    
 BOUNDARY     15   LAYER   1   ROW     1   COL    15   RATE     0.00000    
 BOUNDARY     16   LAYER   1   ROW     2   COL     1   RATE     0.00000    
 BOUNDARY     17   LAYER   1   ROW     2   COL     2   RATE    -4.10065    
 BOUNDARY     18   LAYER   1   ROW     2   COL     3   RATE    -25.2370    
 BOUNDARY     19   LAYER   1   ROW     2   COL     4   RATE    -87.3958    
 BOUNDARY     20   LAYER   1   ROW     2   COL     5   RATE    -87.3958    
 BOUNDARY     21   LAYER   1   ROW     2   COL     6   RATE    -87.3958    
 BOUNDARY     22   LAYER   1   ROW     2   COL     7   RATE    -87.3958    
 BOUNDARY     23   LAYER   1   ROW     2   COL     8   RATE    -87.3958    
 BOUNDARY     24   LAYER   1   ROW     2   COL     9   RATE    -87.3958    
 BOUNDARY     25   LAYER   1   ROW     2   COL    10   RATE    -87.3958    
 BOUNDARY     26   LAYER   1   ROW     2   COL    11   RATE    -87.3958    
 BOUNDARY     27   LAYER   1   ROW     2   COL    12   RATE    -16.9026    
 BOUNDARY     28   LAYER   1   ROW     2   COL    13   RATE   -0.295505    
 BOUNDARY     29   LAYER   1   ROW     2   COL    14   RATE     0.00000    
 BOUNDARY     30   LAYER   1   ROW     2   COL    15   RATE     0.00000    
 BOUNDARY     31   LAYER   1   ROW     3   COL     1   RATE     0.00000    
 BOUNDARY     32   LAYER   1   ROW     3   COL     2   RATE     0.00000    
 BOUNDARY     33   LAYER   1   ROW     3   COL     3   RATE    -20.1385    
 BOUNDARY     34   LAYER   1   ROW     3   COL     4   RATE    -87.3958    
 BOUNDARY     35   LAYER   1   ROW     3   COL     5   RATE    -87.3958    
 BOUNDARY     36   LAYER   1   ROW     3   COL     6   RATE    -87.3958    
 BOUNDARY     37   LAYER   1   ROW     3   COL     7   RATE    -87.3958    
 BOUNDARY     38   LAYER   1   ROW     3   COL     8   RATE    -87.3958    
 BOUNDARY     39   LAYER   1   ROW     3   COL     9   RATE    -87.3958    
 BOUNDARY     40   LAYER   1   ROW     3   COL    10   RATE    -87.3958    
 BOUNDARY     41   LAYER   1   ROW     3   COL    11   RATE    -87.3958    
 BOUNDARY     42   LAYER   1   ROW     3   COL    12   RATE    -19.4712    
 BOUNDARY     43   LAYER   1   ROW     3   COL    13   RATE    -1.86120    
 BOUNDARY     44   LAYER   1   ROW     3   COL    14   RATE     0.00000    
 BOUNDARY     45   LAYER   1   ROW     3   COL    15   RATE     0.00000    
 BOUNDARY     46   LAYER   1   ROW     4   COL     1   RATE     0.00000    
 BOUNDARY     47   LAYER   1   ROW     4   COL     2   RATE    -2.78376    
 BOUNDARY     48   LAYER   1   ROW     4   COL     3   RATE    -23.5450    
 BOUNDARY     49   LAYER   1   ROW     4   COL     4   RATE    -87.3958    
 BOUNDARY     50   LAYER   1   ROW     4   COL     5   RATE    -87.3958    
 BOUNDARY     51   LAYER   1   ROW     4   COL     6   RATE    -87.3958    
 BOUNDARY     52   LAYER   1   ROW     4   COL     7   RATE    -87.3958    
 BOUNDARY     53   LAYER   1   ROW     4   COL     8   RATE    -87.3958    
 BOUNDARY     54   LAYER   1   ROW     4   COL     9   RATE    -87.3958    
 BOUNDARY     55   LAYER   1   ROW     4   COL    10   RATE    -87.3958    
 BOUNDARY     56   LAYER   1   ROW     4   COL    11   RATE    -87.3958    
 BOUNDARY     57   LAYER   1   ROW     4   COL    12   RATE    -21.9178    
 BOUNDARY     58   LAYER   1   ROW     4   COL    13   RATE    -3.13530    
 BOUNDARY     59   LAYER   1   ROW     4   COL    14   RATE     0.00000    
 BOUNDARY     60   LAYER   1   ROW     4   COL    15   RATE     0.00000    
 BOUNDARY     61   LAYER   1   ROW     5   COL     1   RATE     0.00000    
 BOUNDARY     62   LAYER   1   ROW     5   COL     2   RATE    -5.38570    
 BOUNDARY     63   LAYER   1   ROW     5   COL     3   RATE    -30.4844    
 BOUNDARY     64   LAYER   1   ROW     5   COL     4   RATE    -87.3958    
 BOUNDARY     65   LAYER   1   ROW     5   COL     5   RATE    -87.3958    
 BOUNDARY     66   LAYER   1   ROW     5   COL     6   RATE    -87.3958    
 BOUNDARY     67   LAYER   1   ROW     5   COL     7   RATE    -87.3958    
 BOUNDARY     68   LAYER   1   ROW     5   COL     8   RATE    -87.3958    
 BOUNDARY     69   LAYER   1   ROW     5   COL     9   RATE    -87.3958    
 BOUNDARY     70   LAYER   1   ROW     5   COL    10   RATE    -87.3958    
 BOUNDARY     71   LAYER   1   ROW     5   COL    11   RATE    -87.3958    
 BOUNDARY     72   LAYER   1   ROW     5   COL    12   RATE    -23.6060    
 BOUNDARY     73   LAYER   1   ROW     5   COL    13   RATE    -3.91833    
 BOUNDARY     74   LAYER   1   ROW     5   COL    14   RATE     0.00000    
 BOUNDARY     75   LAYER   1   ROW     5   COL    15   RATE     0.00000    
 BOUNDARY     76   LAYER   1   ROW     6   COL     1   RATE     0.00000    
 BOUNDARY     77   LAYER   1   ROW     6   COL     2   RATE    -4.13370    
 BOUNDARY     78   LAYER   1   ROW     6   COL     3   RATE    -33.8827    
 BOUNDARY     79   LAYER   1   ROW     6   COL     4   RATE    -87.3958    
 BOUNDARY     80   LAYER   1   ROW     6   COL     5   RATE    -87.3958    
 BOUNDARY     81   LAYER   1   ROW     6   COL     6   RATE    -87.3958    
 BOUNDARY     82   LAYER   1   ROW     6   COL     7   RATE    -87.3958    
 BOUNDARY     83   LAYER   1   ROW     6   COL     8   RATE    -87.3958    
 BOUNDARY     84   LAYER   1   ROW     6   COL     9   RATE    -87.3958    
 BOUNDARY     85   LAYER   1   ROW     6   COL    10   RATE    -87.3958    
 BOUNDARY     86   LAYER   1   ROW     6   COL    11   RATE    -87.3958    
 BOUNDARY     87   LAYER   1   ROW     6   COL    12   RATE    -24.1729    
 BOUNDARY     88   LAYER   1   ROW     6   COL    13   RATE    -3.87962    
 BOUNDARY     89   LAYER   1   ROW     6   COL    14   RATE     0.00000    
 BOUNDARY     90   LAYER   1   ROW     6   COL    15   RATE     0.00000    
 BOUNDARY     91   LAYER   1   ROW     7   COL     1   RATE     0.00000    
 BOUNDARY     92   LAYER   1   ROW     7   COL     2   RATE    -1.06930    
 BOUNDARY     93   LAYER   1   ROW     7   COL     3   RATE    -39.9849    
 BOUNDARY     94   LAYER   1   ROW     7   COL     4   RATE    -87.3958    
 BOUNDARY     95   LAYER   1   ROW     7   COL     5   RATE    -87.3958    
 BOUNDARY     96   LAYER   1   ROW     7   COL     6   RATE    -87.3958    
 BOUNDARY     97   LAYER   1   ROW     7   COL     7   RATE    -87.3958    
 BOUNDARY     98   LAYER   1   ROW     7   COL     8   RATE    -87.3958    
 BOUNDARY     99   LAYER   1   ROW     7   COL     9   RATE    -87.3958    
 BOUNDARY    100   LAYER   1   ROW     7   COL    10   RATE    -87.3958    
 BOUNDARY    101   LAYER   1   ROW     7   COL    11   RATE    -87.3958    
 BOUNDARY    102   LAYER   1   ROW     7   COL    12   RATE    -24.0371    
 BOUNDARY    103   LAYER   1   ROW     7   COL    13   RATE    -3.24622    
 BOUNDARY    104   LAYER   1   ROW     7   COL    14   RATE     0.00000    
 BOUNDARY    105   LAYER   1   ROW     7   COL    15   RATE     0.00000    
 BOUNDARY    106   LAYER   1   ROW     8   COL     1   RATE     0.00000    
 BOUNDARY    107   LAYER   1   ROW     8   COL     2   RATE    -10.5177    
 BOUNDARY    108   LAYER   1   ROW     8   COL     3   RATE    -87.3958    
 BOUNDARY    109   LAYER   1   ROW     8   COL     4   RATE    -87.3958    
 BOUNDARY    110   LAYER   1   ROW     8   COL     5   RATE    -87.3958    
 BOUNDARY    111   LAYER   1   ROW     8   COL     6   RATE    -87.3958    
 BOUNDARY    112   LAYER   1   ROW     8   COL     7   RATE    -87.3958    
 BOUNDARY    113   LAYER   1   ROW     8   COL     8   RATE    -87.3958    
 BOUNDARY    114   LAYER   1   ROW     8   COL     9   RATE    -87.3958    
 BOUNDARY    115   LAYER   1   ROW     8   COL    10   RATE    -87.3958    
 BOUNDARY    116   LAYER   1   ROW     8   COL    11   RATE    -87.3958    
 BOUNDARY    117   LAYER   1   ROW     8   COL    12   RATE    -24.3848    
 BOUNDARY    118   LAYER   1   ROW     8   COL    13   RATE    -3.25965    
 BOUNDARY    119   LAYER   1   ROW     8   COL    14   RATE     0.00000    
 BOUNDARY    120   LAYER   1   ROW     8   COL    15   RATE     0.00000    
 BOUNDARY    121   LAYER   1   ROW     9   COL     1   RATE    -17.1531    
 BOUNDARY    122   LAYER   1   ROW     9   COL     2   RATE    -56.7942    
 BOUNDARY    123   LAYER   1   ROW     9   COL     3   RATE    -87.3958    
 BOUNDARY    124   LAYER   1   ROW     9   COL     4   RATE    -87.3958    
 BOUNDARY    125   LAYER   1   ROW     9   COL     5   RATE    -87.3958    
 BOUNDARY    126   LAYER   1   ROW     9   COL     6   RATE    -87.3958    
 BOUNDARY    127   LAYER   1   ROW     9   COL     7   RATE    -87.3958    
 BOUNDARY    128   LAYER   1   ROW     9   COL     8   RATE    -87.3958    
 BOUNDARY    129   LAYER   1   ROW     9   COL     9   RATE    -87.3958    
 BOUNDARY    130   LAYER   1   ROW     9   COL    10   RATE    -87.3958    
 BOUNDARY    131   LAYER   1   ROW     9   COL    11   RATE    -87.3958    
 BOUNDARY    132   LAYER   1   ROW     9   COL    12   RATE    -25.3569    
 BOUNDARY    133   LAYER   1   ROW     9   COL    13   RATE    -3.99314    
 BOUNDARY    134   LAYER   1   ROW     9   COL    14   RATE     0.00000    
 BOUNDARY    135   LAYER   1   ROW     9   COL    15   RATE     0.00000    
 BOUNDARY    136   LAYER   1   ROW    10   COL     1   RATE    -64.0028    
 BOUNDARY    137   LAYER   1   ROW    10   COL     2   RATE    -87.3958    
 BOUNDARY    138   LAYER   1   ROW    10   COL     3   RATE    -87.3958    
 BOUNDARY    139   LAYER   1   ROW    10   COL     4   RATE    -87.3958    
 BOUNDARY    140   LAYER   1   ROW    10   COL     5   RATE    -87.3958    
 BOUNDARY    141   LAYER   1   ROW    10   COL     6   RATE    -87.3958    
 BOUNDARY    142   LAYER   1   ROW    10   COL     7   RATE    -87.3958    
 BOUNDARY    143   LAYER   1   ROW    10   COL     8   RATE    -87.3958    
 BOUNDARY    144   LAYER   1   ROW    10   COL     9   RATE    -87.3958    
 BOUNDARY    145   LAYER   1   ROW    10   COL    10   RATE    -87.3958    
 BOUNDARY    146   LAYER   1   ROW    10   COL    11   RATE    -87.3958    
 BOUNDARY    147   LAYER   1   ROW    10   COL    12   RATE    -26.0583    
 BOUNDARY    148   LAYER   1   ROW    10   COL    13   RATE    -4.46157    
 BOUNDARY    149   LAYER   1   ROW    10   COL    14   RATE     0.00000    
 BOUNDARY    150   LAYER   1   ROW    10   COL    15   RATE     0.00000    

 HEAD WILL BE SAVED ON UNIT 1017 AT END OF TIME STEP   28, STRESS PERIOD    3
1
  VOLUME BUDGET FOR ENTIRE MODEL AT END OF TIME STEP   28, STRESS PERIOD   3
  ------------------------------------------------------------------------------

     CUMULATIVE VOLUME      L**3       RATES FOR THIS TIME STEP      L**3/T
     ------------------                 ------------------------

           IN:                                      IN:
           ---                                      ---
             STORAGE =       51475.6198               STORAGE =           0.7729
    WELLS NEAR RIVER =           0.0000      WELLS NEAR RIVER =           0.0000
               RIVER =           0.0000                 RIVER =           0.0000
           GHB LAKES =           0.0000             GHB LAKES =           0.0000
            RECHARGE =     5062500.0000              RECHARGE =       93593.7500
             ET SEGS =           0.0000               ET SEGS =           0.0000

            TOTAL IN =     5113975.6198              TOTAL IN =       93594.5229

          OUT:                                     OUT:
          ----                                     ----
             STORAGE =      721821.8359               STORAGE =       18125.0948
    WELLS NEAR RIVER =        3570.0000      WELLS NEAR RIVER =          50.0000
               RIVER =     2171023.8367                 RIVER =       37743.1160
           GHB LAKES =     1771501.3801             GHB LAKES =       29689.8797
            RECHARGE =           0.0000              RECHARGE =           0.0000
             ET SEGS =      446058.5679               ET SEGS =        7986.4324

           TOTAL OUT =     5113975.6206             TOTAL OUT =       93594.5229

            IN - OUT =      -8.3468E-04              IN - OUT =      -1.0784E-06

 PERCENT DISCREPANCY =          -0.00     PERCENT DISCREPANCY =          -0.00






         TIME SUMMARY AT END OF TIME STEP   28 IN STRESS PERIOD    3
                    SECONDS     MINUTES      HOURS       DAYS        YEARS
                    -----------------------------------------------------------
   TIME STEP LENGTH  86400.      1440.0      24.000     1.00000     2.73785E-03
 STRESS PERIOD TIME 2.41920E+06  40320.      672.00      28.000     7.66598E-02
         TOTAL TIME 5.18400E+06  86400.      1440.0      60.000     0.16427    

 REUSING STORAGE VALUES FROM LAST STRESS PERIOD
 #        k         i         j      flow      var1    var2 var3

 WEL NO.  LAYER   ROW    COL     STRESS RATE  BOUNDARY NAME         VAR1            VAR2            VAR3            
 -------------------------------------------------------------------------------------------------------------------
      1      2      8      4       0.000      WELL_2                1.0000           2.000           3.000    
      2      2      3      4       0.000      WELL_1                 4.000           5.000           6.000    

 REUSING RIVS FROM LAST STRESS PERIOD

 REUSING GHBS FROM LAST STRESS PERIOD

 REUSING RCHS FROM LAST STRESS PERIOD

 REUSING EVTS FROM LAST STRESS PERIOD
WEL   no.    1 value from time series:   0.0000     for time:  60.00     to  61.00    
WEL   no.    2 value from time series:   0.0000     for time:  60.00     to  61.00    
RIV   no.    1 value from time series:   101.00     for time:  60.00     to  61.00    
RIV   no.    2 value from time series:   101.00     for time:  60.00     to  61.00    
RIV   no.    3 value from time series:   111.50     for time:  60.00     to  61.00    
RIV   no.    4 value from time series:   111.50     for time:  60.00     to  61.00    
RIV   no.    5 value from time series:   115.10     for time:  60.00     to  61.00    
RIV   no.    6 value from time series:   115.10     for time:  60.00     to  61.00    
RIV   no.    7 value from time series:   104.00     for time:  60.00     to  61.00    
RIV   no.    8 value from time series:   104.00     for time:  60.00     to  61.00    
RIV   no.    9 value from time series:   113.50     for time:  60.00     to  61.00    
RIV   no.   10 value from time series:   113.50     for time:  60.00     to  61.00    

 RchArraySeries           =  3.300000E-03 FOR LAYER   1

 EtsArraySeries           =  4.500000E-04 FOR LAYER   1
WEL   no.    1 value from time series:   0.0000     for time:  60.00     to  61.00    
WEL   no.    2 value from time series:   0.0000     for time:  60.00     to  61.00    
RIV   no.    1 value from time series:   101.00     for time:  60.00     to  61.00    
RIV   no.    2 value from time series:   101.00     for time:  60.00     to  61.00    
RIV   no.    3 value from time series:   111.50     for time:  60.00     to  61.00    
RIV   no.    4 value from time series:   111.50     for time:  60.00     to  61.00    
RIV   no.    5 value from time series:   115.10     for time:  60.00     to  61.00    
RIV   no.    6 value from time series:   115.10     for time:  60.00     to  61.00    
RIV   no.    7 value from time series:   104.00     for time:  60.00     to  61.00    
RIV   no.    8 value from time series:   104.00     for time:  60.00     to  61.00    
RIV   no.    9 value from time series:   113.50     for time:  60.00     to  61.00    
RIV   no.   10 value from time series:   113.50     for time:  60.00     to  61.00    

 OUTPUT CONTROL FOR STRESS PERIOD    4   TIME STEP    1
    SAVE BUDGET
    SAVE HEAD
    SAVE HEAD FOR ALL LAYERS
 UBDSV1 SAVING          STORAGE ON UNIT   1016 AT TIME STEP      1, STRESS PERIOD      4
 UBDSV1 SAVING FLOW RIGHT FACE  ON UNIT   1016 AT TIME STEP      1, STRESS PERIOD      4
 UBDSV1 SAVING FLOW FRONT FACE  ON UNIT   1016 AT TIME STEP      1, STRESS PERIOD      4
 UBDSV1 SAVING FLOW LOWER FACE  ON UNIT   1016 AT TIME STEP      1, STRESS PERIOD      4
 UBDSV4 SAVING WELLS NEAR RIVER ON UNIT   1016 AT TIME STEP      1, STRESS PERIOD      4

 WELLS NEAR RIVER   PERIOD  4   STEP  1
 BOUNDARY      1   LAYER   2   ROW     8   COL     4   RATE     0.00000      WELL_2
 BOUNDARY      2   LAYER   2   ROW     3   COL     4   RATE     0.00000      WELL_1
 UBDSV4 SAVING RIVER            ON UNIT   1016 AT TIME STEP      1, STRESS PERIOD      4

 RIVER              PERIOD  4   STEP  1
 BOUNDARY      1   LAYER   1   ROW     1   COL    15   RATE    -4808.40    
 BOUNDARY      2   LAYER   1   ROW     2   COL    15   RATE    -5925.79      RIV2
 BOUNDARY      3   LAYER   1   ROW     3   COL    15   RATE    -2180.89      RIV3
 BOUNDARY      4   LAYER   1   ROW     4   COL    15   RATE    -3641.04    
 BOUNDARY      5   LAYER   1   ROW     5   COL    15   RATE    -2282.39    
 BOUNDARY      6   LAYER   1   ROW     6   COL    15   RATE    -1633.45    
 BOUNDARY      7   LAYER   1   ROW     7   COL    15   RATE    -6114.94      RIVX
 BOUNDARY      8   LAYER   1   ROW     8   COL    15   RATE    -5956.26      RIVX
 BOUNDARY      9   LAYER   1   ROW     9   COL    15   RATE    -2156.74      RIVX
 BOUNDARY     10   LAYER   1   ROW    10   COL    15   RATE    -3054.87    

 GHB LAKES          PERIOD  4   STEP  1
 BOUNDARY      1   LAYER   1   ROW     3   COL     1   RATE    -14543.8    
 BOUNDARY      2   LAYER   1   ROW     7   COL     1   RATE    -1898.22      GHB2_UPPER
 BOUNDARY      3   LAYER   1   ROW     7   COL     1   RATE    -13255.5      GHB2_LOWER
 UBDSV4 SAVING RECHARGE         ON UNIT   1016 AT TIME STEP      1, STRESS PERIOD      4

 RECHARGE           PERIOD  4   STEP  1
 BOUNDARY      1   LAYER   1   ROW     1   COL     1   RATE     626.667    
 BOUNDARY      2   LAYER   1   ROW     1   COL     2   RATE     626.667    
 BOUNDARY      3   LAYER   1   ROW     1   COL     3   RATE     626.667    
 BOUNDARY      4   LAYER   1   ROW     1   COL     4   RATE     626.667    
 BOUNDARY      5   LAYER   1   ROW     1   COL     5   RATE     626.667    
 BOUNDARY      6   LAYER   1   ROW     1   COL     6   RATE     626.667    
 BOUNDARY      7   LAYER   1   ROW     1   COL     7   RATE     626.667    
 BOUNDARY      8   LAYER   1   ROW     1   COL     8   RATE     626.667    
 BOUNDARY      9   LAYER   1   ROW     1   COL     9   RATE     626.667    
 BOUNDARY     10   LAYER   1   ROW     1   COL    10   RATE     626.667    
 BOUNDARY     11   LAYER   1   ROW     1   COL    11   RATE     626.667    
 BOUNDARY     12   LAYER   1   ROW     1   COL    12   RATE     626.667    
 BOUNDARY     13   LAYER   1   ROW     1   COL    13   RATE     626.667    
 BOUNDARY     14   LAYER   1   ROW     1   COL    14   RATE     626.667    
 BOUNDARY     15   LAYER   1   ROW     1   COL    15   RATE     626.667    
 BOUNDARY     16   LAYER   1   ROW     2   COL     1   RATE     626.667    
 BOUNDARY     17   LAYER   1   ROW     2   COL     2   RATE     626.667    
 BOUNDARY     18   LAYER   1   ROW     2   COL     3   RATE     626.667    
 BOUNDARY     19   LAYER   1   ROW     2   COL     4   RATE     626.667    
 BOUNDARY     20   LAYER   1   ROW     2   COL     5   RATE     626.667    
 BOUNDARY     21   LAYER   1   ROW     2   COL     6   RATE     626.667    
 BOUNDARY     22   LAYER   1   ROW     2   COL     7   RATE     626.667    
 BOUNDARY     23   LAYER   1   ROW     2   COL     8   RATE     626.667    
 BOUNDARY     24   LAYER   1   ROW     2   COL     9   RATE     626.667    
 BOUNDARY     25   LAYER   1   ROW     2   COL    10   RATE     626.667    
 BOUNDARY     26   LAYER   1   ROW     2   COL    11   RATE     626.667    
 BOUNDARY     27   LAYER   1   ROW     2   COL    12   RATE     626.667    
 BOUNDARY     28   LAYER   1   ROW     2   COL    13   RATE     626.667    
 BOUNDARY     29   LAYER   1   ROW     2   COL    14   RATE     626.667    
 BOUNDARY     30   LAYER   1   ROW     2   COL    15   RATE     626.667    
 BOUNDARY     31   LAYER   1   ROW     3   COL     1   RATE     626.667    
 BOUNDARY     32   LAYER   1   ROW     3   COL     2   RATE     626.667    
 BOUNDARY     33   LAYER   1   ROW     3   COL     3   RATE     626.667    
 BOUNDARY     34   LAYER   1   ROW     3   COL     4   RATE     626.667    
 BOUNDARY     35   LAYER   1   ROW     3   COL     5   RATE     626.667    
 BOUNDARY     36   LAYER   1   ROW     3   COL     6   RATE     626.667    
 BOUNDARY     37   LAYER   1   ROW     3   COL     7   RATE     626.667    
 BOUNDARY     38   LAYER   1   ROW     3   COL     8   RATE     626.667    
 BOUNDARY     39   LAYER   1   ROW     3   COL     9   RATE     626.667    
 BOUNDARY     40   LAYER   1   ROW     3   COL    10   RATE     626.667    
 BOUNDARY     41   LAYER   1   ROW     3   COL    11   RATE     626.667    
 BOUNDARY     42   LAYER   1   ROW     3   COL    12   RATE     626.667    
 BOUNDARY     43   LAYER   1   ROW     3   COL    13   RATE     626.667    
 BOUNDARY     44   LAYER   1   ROW     3   COL    14   RATE     626.667    
 BOUNDARY     45   LAYER   1   ROW     3   COL    15   RATE     626.667    
 BOUNDARY     46   LAYER   1   ROW     4   COL     1   RATE     626.667    
 BOUNDARY     47   LAYER   1   ROW     4   COL     2   RATE     626.667    
 BOUNDARY     48   LAYER   1   ROW     4   COL     3   RATE     626.667    
 BOUNDARY     49   LAYER   1   ROW     4   COL     4   RATE     626.667    
 BOUNDARY     50   LAYER   1   ROW     4   COL     5   RATE     626.667    
 BOUNDARY     51   LAYER   1   ROW     4   COL     6   RATE     626.667    
 BOUNDARY     52   LAYER   1   ROW     4   COL     7   RATE     626.667    
 BOUNDARY     53   LAYER   1   ROW     4   COL     8   RATE     626.667    
 BOUNDARY     54   LAYER   1   ROW     4   COL     9   RATE     626.667    
 BOUNDARY     55   LAYER   1   ROW     4   COL    10   RATE     626.667    
 BOUNDARY     56   LAYER   1   ROW     4   COL    11   RATE     626.667    
 BOUNDARY     57   LAYER   1   ROW     4   COL    12   RATE     626.667    
 BOUNDARY     58   LAYER   1   ROW     4   COL    13   RATE     626.667    
 BOUNDARY     59   LAYER   1   ROW     4   COL    14   RATE     626.667    
 BOUNDARY     60   LAYER   1   ROW     4   COL    15   RATE     626.667    
 BOUNDARY     61   LAYER   1   ROW     5   COL     1   RATE     626.667    
 BOUNDARY     62   LAYER   1   ROW     5   COL     2   RATE     626.667    
 BOUNDARY     63   LAYER   1   ROW     5   COL     3   RATE     626.667    
 BOUNDARY     64   LAYER   1   ROW     5   COL     4   RATE     626.667    
 BOUNDARY     65   LAYER   1   ROW     5   COL     5   RATE     626.667    
 BOUNDARY     66   LAYER   1   ROW     5   COL     6   RATE     626.667    
 BOUNDARY     67   LAYER   1   ROW     5   COL     7   RATE     626.667    
 BOUNDARY     68   LAYER   1   ROW     5   COL     8   RATE     626.667    
 BOUNDARY     69   LAYER   1   ROW     5   COL     9   RATE     626.667    
 BOUNDARY     70   LAYER   1   ROW     5   COL    10   RATE     626.667    
 BOUNDARY     71   LAYER   1   ROW     5   COL    11   RATE     626.667    
 BOUNDARY     72   LAYER   1   ROW     5   COL    12   RATE     626.667    
 BOUNDARY     73   LAYER   1   ROW     5   COL    13   RATE     626.667    
 BOUNDARY     74   LAYER   1   ROW     5   COL    14   RATE     626.667    
 BOUNDARY     75   LAYER   1   ROW     5   COL    15   RATE     626.667    
 BOUNDARY     76   LAYER   1   ROW     6   COL     1   RATE     626.667    
 BOUNDARY     77   LAYER   1   ROW     6   COL     2   RATE     626.667    
 BOUNDARY     78   LAYER   1   ROW     6   COL     3   RATE     626.667    
 BOUNDARY     79   LAYER   1   ROW     6   COL     4   RATE     626.667    
 BOUNDARY     80   LAYER   1   ROW     6   COL     5   RATE     626.667    
 BOUNDARY     81   LAYER   1   ROW     6   COL     6   RATE     626.667    
 BOUNDARY     82   LAYER   1   ROW     6   COL     7   RATE     626.667    
 BOUNDARY     83   LAYER   1   ROW     6   COL     8   RATE     626.667    
 BOUNDARY     84   LAYER   1   ROW     6   COL     9   RATE     626.667    
 BOUNDARY     85   LAYER   1   ROW     6   COL    10   RATE     626.667    
 BOUNDARY     86   LAYER   1   ROW     6   COL    11   RATE     626.667    
 BOUNDARY     87   LAYER   1   ROW     6   COL    12   RATE     626.667    
 BOUNDARY     88   LAYER   1   ROW     6   COL    13   RATE     626.667    
 BOUNDARY     89   LAYER   1   ROW     6   COL    14   RATE     626.667    
 BOUNDARY     90   LAYER   1   ROW     6   COL    15   RATE     626.667    
 BOUNDARY     91   LAYER   1   ROW     7   COL     1   RATE     626.667    
 BOUNDARY     92   LAYER   1   ROW     7   COL     2   RATE     626.667    
 BOUNDARY     93   LAYER   1   ROW     7   COL     3   RATE     626.667    
 BOUNDARY     94   LAYER   1   ROW     7   COL     4   RATE     626.667    
 BOUNDARY     95   LAYER   1   ROW     7   COL     5   RATE     626.667    
 BOUNDARY     96   LAYER   1   ROW     7   COL     6   RATE     626.667    
 BOUNDARY     97   LAYER   1   ROW     7   COL     7   RATE     626.667    
 BOUNDARY     98   LAYER   1   ROW     7   COL     8   RATE     626.667    
 BOUNDARY     99   LAYER   1   ROW     7   COL     9   RATE     626.667    
 BOUNDARY    100   LAYER   1   ROW     7   COL    10   RATE     626.667    
 BOUNDARY    101   LAYER   1   ROW     7   COL    11   RATE     626.667    
 BOUNDARY    102   LAYER   1   ROW     7   COL    12   RATE     626.667    
 BOUNDARY    103   LAYER   1   ROW     7   COL    13   RATE     626.667    
 BOUNDARY    104   LAYER   1   ROW     7   COL    14   RATE     626.667    
 BOUNDARY    105   LAYER   1   ROW     7   COL    15   RATE     626.667    
 BOUNDARY    106   LAYER   1   ROW     8   COL     1   RATE     626.667    
 BOUNDARY    107   LAYER   1   ROW     8   COL     2   RATE     626.667    
 BOUNDARY    108   LAYER   1   ROW     8   COL     3   RATE     626.667    
 BOUNDARY    109   LAYER   1   ROW     8   COL     4   RATE     626.667    
 BOUNDARY    110   LAYER   1   ROW     8   COL     5   RATE     626.667    
 BOUNDARY    111   LAYER   1   ROW     8   COL     6   RATE     626.667    
 BOUNDARY    112   LAYER   1   ROW     8   COL     7   RATE     626.667    
 BOUNDARY    113   LAYER   1   ROW     8   COL     8   RATE     626.667    
 BOUNDARY    114   LAYER   1   ROW     8   COL     9   RATE     626.667    
 BOUNDARY    115   LAYER   1   ROW     8   COL    10   RATE     626.667    
 BOUNDARY    116   LAYER   1   ROW     8   COL    11   RATE     626.667    
 BOUNDARY    117   LAYER   1   ROW     8   COL    12   RATE     626.667    
 BOUNDARY    118   LAYER   1   ROW     8   COL    13   RATE     626.667    
 BOUNDARY    119   LAYER   1   ROW     8   COL    14   RATE     626.667    
 BOUNDARY    120   LAYER   1   ROW     8   COL    15   RATE     626.667    
 BOUNDARY    121   LAYER   1   ROW     9   COL     1   RATE     626.667    
 BOUNDARY    122   LAYER   1   ROW     9   COL     2   RATE     626.667    
 BOUNDARY    123   LAYER   1   ROW     9   COL     3   RATE     626.667    
 BOUNDARY    124   LAYER   1   ROW     9   COL     4   RATE     626.667    
 BOUNDARY    125   LAYER   1   ROW     9   COL     5   RATE     626.667    
 BOUNDARY    126   LAYER   1   ROW     9   COL     6   RATE     626.667    
 BOUNDARY    127   LAYER   1   ROW     9   COL     7   RATE     626.667    
 BOUNDARY    128   LAYER   1   ROW     9   COL     8   RATE     626.667    
 BOUNDARY    129   LAYER   1   ROW     9   COL     9   RATE     626.667    
 BOUNDARY    130   LAYER   1   ROW     9   COL    10   RATE     626.667    
 BOUNDARY    131   LAYER   1   ROW     9   COL    11   RATE     626.667    
 BOUNDARY    132   LAYER   1   ROW     9   COL    12   RATE     626.667    
 BOUNDARY    133   LAYER   1   ROW     9   COL    13   RATE     626.667    
 BOUNDARY    134   LAYER   1   ROW     9   COL    14   RATE     626.667    
 BOUNDARY    135   LAYER   1   ROW     9   COL    15   RATE     626.667    
 BOUNDARY    136   LAYER   1   ROW    10   COL     1   RATE     626.667    
 BOUNDARY    137   LAYER   1   ROW    10   COL     2   RATE     626.667    
 BOUNDARY    138   LAYER   1   ROW    10   COL     3   RATE     626.667    
 BOUNDARY    139   LAYER   1   ROW    10   COL     4   RATE     626.667    
 BOUNDARY    140   LAYER   1   ROW    10   COL     5   RATE     626.667    
 BOUNDARY    141   LAYER   1   ROW    10   COL     6   RATE     626.667    
 BOUNDARY    142   LAYER   1   ROW    10   COL     7   RATE     626.667    
 BOUNDARY    143   LAYER   1   ROW    10   COL     8   RATE     626.667    
 BOUNDARY    144   LAYER   1   ROW    10   COL     9   RATE     626.667    
 BOUNDARY    145   LAYER   1   ROW    10   COL    10   RATE     626.667    
 BOUNDARY    146   LAYER   1   ROW    10   COL    11   RATE     626.667    
 BOUNDARY    147   LAYER   1   ROW    10   COL    12   RATE     626.667    
 BOUNDARY    148   LAYER   1   ROW    10   COL    13   RATE     626.667    
 BOUNDARY    149   LAYER   1   ROW    10   COL    14   RATE     626.667    
 BOUNDARY    150   LAYER   1   ROW    10   COL    15   RATE     626.667    
 UBDSV4 SAVING ET SEGS          ON UNIT   1016 AT TIME STEP      1, STRESS PERIOD      4

 ET SEGS            PERIOD  4   STEP  1
 BOUNDARY      1   LAYER   1   ROW     1   COL     1   RATE    -2.07682    
 BOUNDARY      2   LAYER   1   ROW     1   COL     2   RATE    -8.09587    
 BOUNDARY      3   LAYER   1   ROW     1   COL     3   RATE    -46.8276    
 BOUNDARY      4   LAYER   1   ROW     1   COL     4   RATE    -87.7083    
 BOUNDARY      5   LAYER   1   ROW     1   COL     5   RATE    -87.7083    
 BOUNDARY      6   LAYER   1   ROW     1   COL     6   RATE    -87.7083    
 BOUNDARY      7   LAYER   1   ROW     1   COL     7   RATE    -87.7083    
 BOUNDARY      8   LAYER   1   ROW     1   COL     8   RATE    -87.7083    
 BOUNDARY      9   LAYER   1   ROW     1   COL     9   RATE    -87.7083    
 BOUNDARY     10   LAYER   1   ROW     1   COL    10   RATE    -87.7083    
 BOUNDARY     11   LAYER   1   ROW     1   COL    11   RATE    -87.7083    
 BOUNDARY     12   LAYER   1   ROW     1   COL    12   RATE    -15.4659    
 BOUNDARY     13   LAYER   1   ROW     1   COL    13   RATE     0.00000    
 BOUNDARY     14   LAYER   1   ROW     1   COL    14   RATE     0.00000    
 BOUNDARY     15   LAYER   1   ROW     1   COL    15   RATE     0.00000    
 BOUNDARY     16   LAYER   1   ROW     2   COL     1   RATE     0.00000    
 BOUNDARY     17   LAYER   1   ROW     2   COL     2   RATE    -4.12367    
 BOUNDARY     18   LAYER   1   ROW     2   COL     3   RATE    -25.3654    
 BOUNDARY     19   LAYER   1   ROW     2   COL     4   RATE    -87.7083    
 BOUNDARY     20   LAYER   1   ROW     2   COL     5   RATE    -87.7083    
 BOUNDARY     21   LAYER   1   ROW     2   COL     6   RATE    -87.7083    
 BOUNDARY     22   LAYER   1   ROW     2   COL     7   RATE    -87.7083    
 BOUNDARY     23   LAYER   1   ROW     2   COL     8   RATE    -87.7083    
 BOUNDARY     24   LAYER   1   ROW     2   COL     9   RATE    -87.7083    
 BOUNDARY     25   LAYER   1   ROW     2   COL    10   RATE    -87.7083    
 BOUNDARY     26   LAYER   1   ROW     2   COL    11   RATE    -87.7083    
 BOUNDARY     27   LAYER   1   ROW     2   COL    12   RATE    -16.9941    
 BOUNDARY     28   LAYER   1   ROW     2   COL    13   RATE   -0.305757    
 BOUNDARY     29   LAYER   1   ROW     2   COL    14   RATE     0.00000    
 BOUNDARY     30   LAYER   1   ROW     2   COL    15   RATE     0.00000    
 BOUNDARY     31   LAYER   1   ROW     3   COL     1   RATE     0.00000    
 BOUNDARY     32   LAYER   1   ROW     3   COL     2   RATE     0.00000    
 BOUNDARY     33   LAYER   1   ROW     3   COL     3   RATE    -20.2394    
 BOUNDARY     34   LAYER   1   ROW     3   COL     4   RATE    -87.7083    
 BOUNDARY     35   LAYER   1   ROW     3   COL     5   RATE    -87.7083    
 BOUNDARY     36   LAYER   1   ROW     3   COL     6   RATE    -87.7083    
 BOUNDARY     37   LAYER   1   ROW     3   COL     7   RATE    -87.7083    
 BOUNDARY     38   LAYER   1   ROW     3   COL     8   RATE    -87.7083    
 BOUNDARY     39   LAYER   1   ROW     3   COL     9   RATE    -87.7083    
 BOUNDARY     40   LAYER   1   ROW     3   COL    10   RATE    -87.7083    
 BOUNDARY     41   LAYER   1   ROW     3   COL    11   RATE    -87.7083    
 BOUNDARY     42   LAYER   1   ROW     3   COL    12   RATE    -19.5719    
 BOUNDARY     43   LAYER   1   ROW     3   COL    13   RATE    -1.87717    
 BOUNDARY     44   LAYER   1   ROW     3   COL    14   RATE     0.00000    
 BOUNDARY     45   LAYER   1   ROW     3   COL    15   RATE     0.00000    
 BOUNDARY     46   LAYER   1   ROW     4   COL     1   RATE     0.00000    
 BOUNDARY     47   LAYER   1   ROW     4   COL     2   RATE    -2.80235    
 BOUNDARY     48   LAYER   1   ROW     4   COL     3   RATE    -23.6590    
 BOUNDARY     49   LAYER   1   ROW     4   COL     4   RATE    -87.7083    
 BOUNDARY     50   LAYER   1   ROW     4   COL     5   RATE    -87.7083    
 BOUNDARY     51   LAYER   1   ROW     4   COL     6   RATE    -87.7083    
 BOUNDARY     52   LAYER   1   ROW     4   COL     7   RATE    -87.7083    
 BOUNDARY     53   LAYER   1   ROW     4   COL     8   RATE    -87.7083    
 BOUNDARY     54   LAYER   1   ROW     4   COL     9   RATE    -87.7083    
 BOUNDARY     55   LAYER   1   ROW     4   COL    10   RATE    -87.7083    
 BOUNDARY     56   LAYER   1   ROW     4   COL    11   RATE    -87.7083    
 BOUNDARY     57   LAYER   1   ROW     4   COL    12   RATE    -22.0271    
 BOUNDARY     58   LAYER   1   ROW     4   COL    13   RATE    -3.15566    
 BOUNDARY     59   LAYER   1   ROW     4   COL    14   RATE     0.00000    
 BOUNDARY     60   LAYER   1   ROW     4   COL    15   RATE     0.00000    
 BOUNDARY     61   LAYER   1   ROW     5   COL     1   RATE     0.00000    
 BOUNDARY     62   LAYER   1   ROW     5   COL     2   RATE    -5.41371    
 BOUNDARY     63   LAYER   1   ROW     5   COL     3   RATE    -30.7493    
 BOUNDARY     64   LAYER   1   ROW     5   COL     4   RATE    -87.7083    
 BOUNDARY     65   LAYER   1   ROW     5   COL     5   RATE    -87.7083    
 BOUNDARY     66   LAYER   1   ROW     5   COL     6   RATE    -87.7083    
 BOUNDARY     67   LAYER   1   ROW     5   COL     7   RATE    -87.7083    
 BOUNDARY     68   LAYER   1   ROW     5   COL     8   RATE    -87.7083    
 BOUNDARY     69   LAYER   1   ROW     5   COL     9   RATE    -87.7083    
 BOUNDARY     70   LAYER   1   ROW     5   COL    10   RATE    -87.7083    
 BOUNDARY     71   LAYER   1   ROW     5   COL    11   RATE    -87.7083    
 BOUNDARY     72   LAYER   1   ROW     5   COL    12   RATE    -23.7209    
 BOUNDARY     73   LAYER   1   ROW     5   COL    13   RATE    -3.94111    
 BOUNDARY     74   LAYER   1   ROW     5   COL    14   RATE     0.00000    
 BOUNDARY     75   LAYER   1   ROW     5   COL    15   RATE     0.00000    
 BOUNDARY     76   LAYER   1   ROW     6   COL     1   RATE     0.00000    
 BOUNDARY     77   LAYER   1   ROW     6   COL     2   RATE    -4.15707    
 BOUNDARY     78   LAYER   1   ROW     6   COL     3   RATE    -34.1593    
 BOUNDARY     79   LAYER   1   ROW     6   COL     4   RATE    -87.7083    
 BOUNDARY     80   LAYER   1   ROW     6   COL     5   RATE    -87.7083    
 BOUNDARY     81   LAYER   1   ROW     6   COL     6   RATE    -87.7083    
 BOUNDARY     82   LAYER   1   ROW     6   COL     7   RATE    -87.7083    
 BOUNDARY     83   LAYER   1   ROW     6   COL     8   RATE    -87.7083    
 BOUNDARY     84   LAYER   1   ROW     6   COL     9   RATE    -87.7083    
 BOUNDARY     85   LAYER   1   ROW     6   COL    10   RATE    -87.7083    
 BOUNDARY     86   LAYER   1   ROW     6   COL    11   RATE    -87.7083    
 BOUNDARY     87   LAYER   1   ROW     6   COL    12   RATE    -24.2898    
 BOUNDARY     88   LAYER   1   ROW     6   COL    13   RATE    -3.90213    
 BOUNDARY     89   LAYER   1   ROW     6   COL    14   RATE     0.00000    
 BOUNDARY     90   LAYER   1   ROW     6   COL    15   RATE     0.00000    
 BOUNDARY     91   LAYER   1   ROW     7   COL     1   RATE     0.00000    
 BOUNDARY     92   LAYER   1   ROW     7   COL     2   RATE    -1.08126    
 BOUNDARY     93   LAYER   1   ROW     7   COL     3   RATE    -40.2831    
 BOUNDARY     94   LAYER   1   ROW     7   COL     4   RATE    -87.7083    
 BOUNDARY     95   LAYER   1   ROW     7   COL     5   RATE    -87.7083    
 BOUNDARY     96   LAYER   1   ROW     7   COL     6   RATE    -87.7083    
 BOUNDARY     97   LAYER   1   ROW     7   COL     7   RATE    -87.7083    
 BOUNDARY     98   LAYER   1   ROW     7   COL     8   RATE    -87.7083    
 BOUNDARY     99   LAYER   1   ROW     7   COL     9   RATE    -87.7083    
 BOUNDARY    100   LAYER   1   ROW     7   COL    10   RATE    -87.7083    
 BOUNDARY    101   LAYER   1   ROW     7   COL    11   RATE    -87.7083    
 BOUNDARY    102   LAYER   1   ROW     7   COL    12   RATE    -24.1537    
 BOUNDARY    103   LAYER   1   ROW     7   COL    13   RATE    -3.26667    
 BOUNDARY    104   LAYER   1   ROW     7   COL    14   RATE     0.00000    
 BOUNDARY    105   LAYER   1   ROW     7   COL    15   RATE     0.00000    
 BOUNDARY    106   LAYER   1   ROW     8   COL     1   RATE     0.00000    
 BOUNDARY    107   LAYER   1   ROW     8   COL     2   RATE    -10.5846    
 BOUNDARY    108   LAYER   1   ROW     8   COL     3   RATE    -87.7083    
 BOUNDARY    109   LAYER   1   ROW     8   COL     4   RATE    -87.7083    
 BOUNDARY    110   LAYER   1   ROW     8   COL     5   RATE    -87.7083    
 BOUNDARY    111   LAYER   1   ROW     8   COL     6   RATE    -87.7083    
 BOUNDARY    112   LAYER   1   ROW     8   COL     7   RATE    -87.7083    
 BOUNDARY    113   LAYER   1   ROW     8   COL     8   RATE    -87.7083    
 BOUNDARY    114   LAYER   1   ROW     8   COL     9   RATE    -87.7083    
 BOUNDARY    115   LAYER   1   ROW     8   COL    10   RATE    -87.7083    
 BOUNDARY    116   LAYER   1   ROW     8   COL    11   RATE    -87.7083    
 BOUNDARY    117   LAYER   1   ROW     8   COL    12   RATE    -24.5031    
 BOUNDARY    118   LAYER   1   ROW     8   COL    13   RATE    -3.28058    
 BOUNDARY    119   LAYER   1   ROW     8   COL    14   RATE     0.00000    
 BOUNDARY    120   LAYER   1   ROW     8   COL    15   RATE     0.00000    
 BOUNDARY    121   LAYER   1   ROW     9   COL     1   RATE    -17.2440    
 BOUNDARY    122   LAYER   1   ROW     9   COL     2   RATE    -57.1541    
 BOUNDARY    123   LAYER   1   ROW     9   COL     3   RATE    -87.7083    
 BOUNDARY    124   LAYER   1   ROW     9   COL     4   RATE    -87.7083    
 BOUNDARY    125   LAYER   1   ROW     9   COL     5   RATE    -87.7083    
 BOUNDARY    126   LAYER   1   ROW     9   COL     6   RATE    -87.7083    
 BOUNDARY    127   LAYER   1   ROW     9   COL     7   RATE    -87.7083    
 BOUNDARY    128   LAYER   1   ROW     9   COL     8   RATE    -87.7083    
 BOUNDARY    129   LAYER   1   ROW     9   COL     9   RATE    -87.7083    
 BOUNDARY    130   LAYER   1   ROW     9   COL    10   RATE    -87.7083    
 BOUNDARY    131   LAYER   1   ROW     9   COL    11   RATE    -87.7083    
 BOUNDARY    132   LAYER   1   ROW     9   COL    12   RATE    -25.4792    
 BOUNDARY    133   LAYER   1   ROW     9   COL    13   RATE    -4.01727    
 BOUNDARY    134   LAYER   1   ROW     9   COL    14   RATE     0.00000    
 BOUNDARY    135   LAYER   1   ROW     9   COL    15   RATE     0.00000    
 BOUNDARY    136   LAYER   1   ROW    10   COL     1   RATE    -64.3876    
 BOUNDARY    137   LAYER   1   ROW    10   COL     2   RATE    -87.7083    
 BOUNDARY    138   LAYER   1   ROW    10   COL     3   RATE    -87.7083    
 BOUNDARY    139   LAYER   1   ROW    10   COL     4   RATE    -87.7083    
 BOUNDARY    140   LAYER   1   ROW    10   COL     5   RATE    -87.7083    
 BOUNDARY    141   LAYER   1   ROW    10   COL     6   RATE    -87.7083    
 BOUNDARY    142   LAYER   1   ROW    10   COL     7   RATE    -87.7083    
 BOUNDARY    143   LAYER   1   ROW    10   COL     8   RATE    -87.7083    
 BOUNDARY    144   LAYER   1   ROW    10   COL     9   RATE    -87.7083    
 BOUNDARY    145   LAYER   1   ROW    10   COL    10   RATE    -87.7083    
 BOUNDARY    146   LAYER   1   ROW    10   COL    11   RATE    -87.7083    
 BOUNDARY    147   LAYER   1   ROW    10   COL    12   RATE    -26.1835    
 BOUNDARY    148   LAYER   1   ROW    10   COL    13   RATE    -4.48768    
 BOUNDARY    149   LAYER   1   ROW    10   COL    14   RATE     0.00000    
 BOUNDARY    150   LAYER   1   ROW    10   COL    15   RATE     0.00000    

 HEAD WILL BE SAVED ON UNIT 1017 AT END OF TIME STEP    1, STRESS PERIOD    4
WEL   no.    1 value from time series:   0.0000     for time:  61.00     to  62.00    
WEL   no.    2 value from time series:   0.0000     for time:  61.00     to  62.00    
RIV   no.    1 value from time series:   101.00     for time:  61.00     to  62.00    
RIV   no.    2 value from time series:   101.00     for time:  61.00     to  62.00    
RIV   no.    3 value from time series:   111.50     for time:  61.00     to  62.00    
RIV   no.    4 value from time series:   111.50     for time:  61.00     to  62.00    
RIV   no.    5 value from time series:   115.10     for time:  61.00     to  62.00    
RIV   no.    6 value from time series:   115.10     for time:  61.00     to  62.00    
RIV   no.    7 value from time series:   104.00     for time:  61.00     to  62.00    
RIV   no.    8 value from time series:   104.00     for time:  61.00     to  62.00    
RIV   no.    9 value from time series:   113.50     for time:  61.00     to  62.00    
RIV   no.   10 value from time series:   113.50     for time:  61.00     to  62.00    
WEL   no.    1 value from time series:   0.0000     for time:  61.00     to  62.00    
WEL   no.    2 value from time series:   0.0000     for time:  61.00     to  62.00    
RIV   no.    1 value from time series:   101.00     for time:  61.00     to  62.00    
RIV   no.    2 value from time series:   101.00     for time:  61.00     to  62.00    
RIV   no.    3 value from time series:   111.50     for time:  61.00     to  62.00    
RIV   no.    4 value from time series:   111.50     for time:  61.00     to  62.00    
RIV   no.    5 value from time series:   115.10     for time:  61.00     to  62.00    
RIV   no.    6 value from time series:   115.10     for time:  61.00     to  62.00    
RIV   no.    7 value from time series:   104.00     for time:  61.00     to  62.00    
RIV   no.    8 value from time series:   104.00     for time:  61.00     to  62.00    
RIV   no.    9 value from time series:   113.50     for time:  61.00     to  62.00    
RIV   no.   10 value from time series:   113.50     for time:  61.00     to  62.00    

 OUTPUT CONTROL FOR STRESS PERIOD    4   TIME STEP    2
    SAVE BUDGET
    SAVE HEAD
    SAVE HEAD FOR ALL LAYERS
 UBDSV1 SAVING          STORAGE ON UNIT   1016 AT TIME STEP      2, STRESS PERIOD      4
 UBDSV1 SAVING FLOW RIGHT FACE  ON UNIT   1016 AT TIME STEP      2, STRESS PERIOD      4
 UBDSV1 SAVING FLOW FRONT FACE  ON UNIT   1016 AT TIME STEP      2, STRESS PERIOD      4
 UBDSV1 SAVING FLOW LOWER FACE  ON UNIT   1016 AT TIME STEP      2, STRESS PERIOD      4
 UBDSV4 SAVING WELLS NEAR RIVER ON UNIT   1016 AT TIME STEP      2, STRESS PERIOD      4

 WELLS NEAR RIVER   PERIOD  4   STEP  2
 BOUNDARY      1   LAYER   2   ROW     8   COL     4   RATE     0.00000      WELL_2
 BOUNDARY      2   LAYER   2   ROW     3   COL     4   RATE     0.00000      WELL_1
 UBDSV4 SAVING RIVER            ON UNIT   1016 AT TIME STEP      2, STRESS PERIOD      4

 RIVER              PERIOD  4   STEP  2
 BOUNDARY      1   LAYER   1   ROW     1   COL    15   RATE    -4808.68    
 BOUNDARY      2   LAYER   1   ROW     2   COL    15   RATE    -5926.40      RIV2
 BOUNDARY      3   LAYER   1   ROW     3   COL    15   RATE    -2182.25      RIV3
 BOUNDARY      4   LAYER   1   ROW     4   COL    15   RATE    -3642.54    
 BOUNDARY      5   LAYER   1   ROW     5   COL    15   RATE    -2283.76    
 BOUNDARY      6   LAYER   1   ROW     6   COL    15   RATE    -1634.67    
 BOUNDARY      7   LAYER   1   ROW     7   COL    15   RATE    -6116.01      RIVX
 BOUNDARY      8   LAYER   1   ROW     8   COL    15   RATE    -5957.63      RIVX
 BOUNDARY      9   LAYER   1   ROW     9   COL    15   RATE    -2158.66      RIVX
 BOUNDARY     10   LAYER   1   ROW    10   COL    15   RATE    -3057.08    

 GHB LAKES          PERIOD  4   STEP  2
 BOUNDARY      1   LAYER   1   ROW     3   COL     1   RATE    -14547.7    
 BOUNDARY      2   LAYER   1   ROW     7   COL     1   RATE    -1901.28      GHB2_UPPER
 BOUNDARY      3   LAYER   1   ROW     7   COL     1   RATE    -13256.6      GHB2_LOWER
 UBDSV4 SAVING RECHARGE         ON UNIT   1016 AT TIME STEP      2, STRESS PERIOD      4

 RECHARGE           PERIOD  4   STEP  2
 BOUNDARY      1   LAYER   1   ROW     1   COL     1   RATE     630.000    
 BOUNDARY      2   LAYER   1   ROW     1   COL     2   RATE     630.000    
 BOUNDARY      3   LAYER   1   ROW     1   COL     3   RATE     630.000    
 BOUNDARY      4   LAYER   1   ROW     1   COL     4   RATE     630.000    
 BOUNDARY      5   LAYER   1   ROW     1   COL     5   RATE     630.000    
 BOUNDARY      6   LAYER   1   ROW     1   COL     6   RATE     630.000    
 BOUNDARY      7   LAYER   1   ROW     1   COL     7   RATE     630.000    
 BOUNDARY      8   LAYER   1   ROW     1   COL     8   RATE     630.000    
 BOUNDARY      9   LAYER   1   ROW     1   COL     9   RATE     630.000    
 BOUNDARY     10   LAYER   1   ROW     1   COL    10   RATE     630.000    
 BOUNDARY     11   LAYER   1   ROW     1   COL    11   RATE     630.000    
 BOUNDARY     12   LAYER   1   ROW     1   COL    12   RATE     630.000    
 BOUNDARY     13   LAYER   1   ROW     1   COL    13   RATE     630.000    
 BOUNDARY     14   LAYER   1   ROW     1   COL    14   RATE     630.000    
 BOUNDARY     15   LAYER   1   ROW     1   COL    15   RATE     630.000    
 BOUNDARY     16   LAYER   1   ROW     2   COL     1   RATE     630.000    
 BOUNDARY     17   LAYER   1   ROW     2   COL     2   RATE     630.000    
 BOUNDARY     18   LAYER   1   ROW     2   COL     3   RATE     630.000    
 BOUNDARY     19   LAYER   1   ROW     2   COL     4   RATE     630.000    
 BOUNDARY     20   LAYER   1   ROW     2   COL     5   RATE     630.000    
 BOUNDARY     21   LAYER   1   ROW     2   COL     6   RATE     630.000    
 BOUNDARY     22   LAYER   1   ROW     2   COL     7   RATE     630.000    
 BOUNDARY     23   LAYER   1   ROW     2   COL     8   RATE     630.000    
 BOUNDARY     24   LAYER   1   ROW     2   COL     9   RATE     630.000    
 BOUNDARY     25   LAYER   1   ROW     2   COL    10   RATE     630.000    
 BOUNDARY     26   LAYER   1   ROW     2   COL    11   RATE     630.000    
 BOUNDARY     27   LAYER   1   ROW     2   COL    12   RATE     630.000    
 BOUNDARY     28   LAYER   1   ROW     2   COL    13   RATE     630.000    
 BOUNDARY     29   LAYER   1   ROW     2   COL    14   RATE     630.000    
 BOUNDARY     30   LAYER   1   ROW     2   COL    15   RATE     630.000    
 BOUNDARY     31   LAYER   1   ROW     3   COL     1   RATE     630.000    
 BOUNDARY     32   LAYER   1   ROW     3   COL     2   RATE     630.000    
 BOUNDARY     33   LAYER   1   ROW     3   COL     3   RATE     630.000    
 BOUNDARY     34   LAYER   1   ROW     3   COL     4   RATE     630.000    
 BOUNDARY     35   LAYER   1   ROW     3   COL     5   RATE     630.000    
 BOUNDARY     36   LAYER   1   ROW     3   COL     6   RATE     630.000    
 BOUNDARY     37   LAYER   1   ROW     3   COL     7   RATE     630.000    
 BOUNDARY     38   LAYER   1   ROW     3   COL     8   RATE     630.000    
 BOUNDARY     39   LAYER   1   ROW     3   COL     9   RATE     630.000    
 BOUNDARY     40   LAYER   1   ROW     3   COL    10   RATE     630.000    
 BOUNDARY     41   LAYER   1   ROW     3   COL    11   RATE     630.000    
 BOUNDARY     42   LAYER   1   ROW     3   COL    12   RATE     630.000    
 BOUNDARY     43   LAYER   1   ROW     3   COL    13   RATE     630.000    
 BOUNDARY     44   LAYER   1   ROW     3   COL    14   RATE     630.000    
 BOUNDARY     45   LAYER   1   ROW     3   COL    15   RATE     630.000    
 BOUNDARY     46   LAYER   1   ROW     4   COL     1   RATE     630.000    
 BOUNDARY     47   LAYER   1   ROW     4   COL     2   RATE     630.000    
 BOUNDARY     48   LAYER   1   ROW     4   COL     3   RATE     630.000    
 BOUNDARY     49   LAYER   1   ROW     4   COL     4   RATE     630.000    
 BOUNDARY     50   LAYER   1   ROW     4   COL     5   RATE     630.000    
 BOUNDARY     51   LAYER   1   ROW     4   COL     6   RATE     630.000    
 BOUNDARY     52   LAYER   1   ROW     4   COL     7   RATE     630.000    
 BOUNDARY     53   LAYER   1   ROW     4   COL     8   RATE     630.000    
 BOUNDARY     54   LAYER   1   ROW     4   COL     9   RATE     630.000    
 BOUNDARY     55   LAYER   1   ROW     4   COL    10   RATE     630.000    
 BOUNDARY     56   LAYER   1   ROW     4   COL    11   RATE     630.000    
 BOUNDARY     57   LAYER   1   ROW     4   COL    12   RATE     630.000    
 BOUNDARY     58   LAYER   1   ROW     4   COL    13   RATE     630.000    
 BOUNDARY     59   LAYER   1   ROW     4   COL    14   RATE     630.000    
 BOUNDARY     60   LAYER   1   ROW     4   COL    15   RATE     630.000    
 BOUNDARY     61   LAYER   1   ROW     5   COL     1   RATE     630.000    
 BOUNDARY     62   LAYER   1   ROW     5   COL     2   RATE     630.000    
 BOUNDARY     63   LAYER   1   ROW     5   COL     3   RATE     630.000    
 BOUNDARY     64   LAYER   1   ROW     5   COL     4   RATE     630.000    
 BOUNDARY     65   LAYER   1   ROW     5   COL     5   RATE     630.000    
 BOUNDARY     66   LAYER   1   ROW     5   COL     6   RATE     630.000    
 BOUNDARY     67   LAYER   1   ROW     5   COL     7   RATE     630.000    
 BOUNDARY     68   LAYER   1   ROW     5   COL     8   RATE     630.000    
 BOUNDARY     69   LAYER   1   ROW     5   COL     9   RATE     630.000    
 BOUNDARY     70   LAYER   1   ROW     5   COL    10   RATE     630.000    
 BOUNDARY     71   LAYER   1   ROW     5   COL    11   RATE     630.000    
 BOUNDARY     72   LAYER   1   ROW     5   COL    12   RATE     630.000    
 BOUNDARY     73   LAYER   1   ROW     5   COL    13   RATE     630.000    
 BOUNDARY     74   LAYER   1   ROW     5   COL    14   RATE     630.000    
 BOUNDARY     75   LAYER   1   ROW     5   COL    15   RATE     630.000    
 BOUNDARY     76   LAYER   1   ROW     6   COL     1   RATE     630.000    
 BOUNDARY     77   LAYER   1   ROW     6   COL     2   RATE     630.000    
 BOUNDARY     78   LAYER   1   ROW     6   COL     3   RATE     630.000    
 BOUNDARY     79   LAYER   1   ROW     6   COL     4   RATE     630.000    
 BOUNDARY     80   LAYER   1   ROW     6   COL     5   RATE     630.000    
 BOUNDARY     81   LAYER   1   ROW     6   COL     6   RATE     630.000    
 BOUNDARY     82   LAYER   1   ROW     6   COL     7   RATE     630.000    
 BOUNDARY     83   LAYER   1   ROW     6   COL     8   RATE     630.000    
 BOUNDARY     84   LAYER   1   ROW     6   COL     9   RATE     630.000    
 BOUNDARY     85   LAYER   1   ROW     6   COL    10   RATE     630.000    
 BOUNDARY     86   LAYER   1   ROW     6   COL    11   RATE     630.000    
 BOUNDARY     87   LAYER   1   ROW     6   COL    12   RATE     630.000    
 BOUNDARY     88   LAYER   1   ROW     6   COL    13   RATE     630.000    
 BOUNDARY     89   LAYER   1   ROW     6   COL    14   RATE     630.000    
 BOUNDARY     90   LAYER   1   ROW     6   COL    15   RATE     630.000    
 BOUNDARY     91   LAYER   1   ROW     7   COL     1   RATE     630.000    
 BOUNDARY     92   LAYER   1   ROW     7   COL     2   RATE     630.000    
 BOUNDARY     93   LAYER   1   ROW     7   COL     3   RATE     630.000    
 BOUNDARY     94   LAYER   1   ROW     7   COL     4   RATE     630.000    
 BOUNDARY     95   LAYER   1   ROW     7   COL     5   RATE     630.000    
 BOUNDARY     96   LAYER   1   ROW     7   COL     6   RATE     630.000    
 BOUNDARY     97   LAYER   1   ROW     7   COL     7   RATE     630.000    
 BOUNDARY     98   LAYER   1   ROW     7   COL     8   RATE     630.000    
 BOUNDARY     99   LAYER   1   ROW     7   COL     9   RATE     630.000    
 BOUNDARY    100   LAYER   1   ROW     7   COL    10   RATE     630.000    
 BOUNDARY    101   LAYER   1   ROW     7   COL    11   RATE     630.000    
 BOUNDARY    102   LAYER   1   ROW     7   COL    12   RATE     630.000    
 BOUNDARY    103   LAYER   1   ROW     7   COL    13   RATE     630.000    
 BOUNDARY    104   LAYER   1   ROW     7   COL    14   RATE     630.000    
 BOUNDARY    105   LAYER   1   ROW     7   COL    15   RATE     630.000    
 BOUNDARY    106   LAYER   1   ROW     8   COL     1   RATE     630.000    
 BOUNDARY    107   LAYER   1   ROW     8   COL     2   RATE     630.000    
 BOUNDARY    108   LAYER   1   ROW     8   COL     3   RATE     630.000    
 BOUNDARY    109   LAYER   1   ROW     8   COL     4   RATE     630.000    
 BOUNDARY    110   LAYER   1   ROW     8   COL     5   RATE     630.000    
 BOUNDARY    111   LAYER   1   ROW     8   COL     6   RATE     630.000    
 BOUNDARY    112   LAYER   1   ROW     8   COL     7   RATE     630.000    
 BOUNDARY    113   LAYER   1   ROW     8   COL     8   RATE     630.000    
 BOUNDARY    114   LAYER   1   ROW     8   COL     9   RATE     630.000    
 BOUNDARY    115   LAYER   1   ROW     8   COL    10   RATE     630.000    
 BOUNDARY    116   LAYER   1   ROW     8   COL    11   RATE     630.000    
 BOUNDARY    117   LAYER   1   ROW     8   COL    12   RATE     630.000    
 BOUNDARY    118   LAYER   1   ROW     8   COL    13   RATE     630.000    
 BOUNDARY    119   LAYER   1   ROW     8   COL    14   RATE     630.000    
 BOUNDARY    120   LAYER   1   ROW     8   COL    15   RATE     630.000    
 BOUNDARY    121   LAYER   1   ROW     9   COL     1   RATE     630.000    
 BOUNDARY    122   LAYER   1   ROW     9   COL     2   RATE     630.000    
 BOUNDARY    123   LAYER   1   ROW     9   COL     3   RATE     630.000    
 BOUNDARY    124   LAYER   1   ROW     9   COL     4   RATE     630.000    
 BOUNDARY    125   LAYER   1   ROW     9   COL     5   RATE     630.000    
 BOUNDARY    126   LAYER   1   ROW     9   COL     6   RATE     630.000    
 BOUNDARY    127   LAYER   1   ROW     9   COL     7   RATE     630.000    
 BOUNDARY    128   LAYER   1   ROW     9   COL     8   RATE     630.000    
 BOUNDARY    129   LAYER   1   ROW     9   COL     9   RATE     630.000    
 BOUNDARY    130   LAYER   1   ROW     9   COL    10   RATE     630.000    
 BOUNDARY    131   LAYER   1   ROW     9   COL    11   RATE     630.000    
 BOUNDARY    132   LAYER   1   ROW     9   COL    12   RATE     630.000    
 BOUNDARY    133   LAYER   1   ROW     9   COL    13   RATE     630.000    
 BOUNDARY    134   LAYER   1   ROW     9   COL    14   RATE     630.000    
 BOUNDARY    135   LAYER   1   ROW     9   COL    15   RATE     630.000    
 BOUNDARY    136   LAYER   1   ROW    10   COL     1   RATE     630.000    
 BOUNDARY    137   LAYER   1   ROW    10   COL     2   RATE     630.000    
 BOUNDARY    138   LAYER   1   ROW    10   COL     3   RATE     630.000    
 BOUNDARY    139   LAYER   1   ROW    10   COL     4   RATE     630.000    
 BOUNDARY    140   LAYER   1   ROW    10   COL     5   RATE     630.000    
 BOUNDARY    141   LAYER   1   ROW    10   COL     6   RATE     630.000    
 BOUNDARY    142   LAYER   1   ROW    10   COL     7   RATE     630.000    
 BOUNDARY    143   LAYER   1   ROW    10   COL     8   RATE     630.000    
 BOUNDARY    144   LAYER   1   ROW    10   COL     9   RATE     630.000    
 BOUNDARY    145   LAYER   1   ROW    10   COL    10   RATE     630.000    
 BOUNDARY    146   LAYER   1   ROW    10   COL    11   RATE     630.000    
 BOUNDARY    147   LAYER   1   ROW    10   COL    12   RATE     630.000    
 BOUNDARY    148   LAYER   1   ROW    10   COL    13   RATE     630.000    
 BOUNDARY    149   LAYER   1   ROW    10   COL    14   RATE     630.000    
 BOUNDARY    150   LAYER   1   ROW    10   COL    15   RATE     630.000    
 UBDSV4 SAVING ET SEGS          ON UNIT   1016 AT TIME STEP      2, STRESS PERIOD      4

 ET SEGS            PERIOD  4   STEP  2
 BOUNDARY      1   LAYER   1   ROW     1   COL     1   RATE    -2.09556    
 BOUNDARY      2   LAYER   1   ROW     1   COL     2   RATE    -8.14328    
 BOUNDARY      3   LAYER   1   ROW     1   COL     3   RATE    -47.2047    
 BOUNDARY      4   LAYER   1   ROW     1   COL     4   RATE    -88.1250    
 BOUNDARY      5   LAYER   1   ROW     1   COL     5   RATE    -88.1250    
 BOUNDARY      6   LAYER   1   ROW     1   COL     6   RATE    -88.1250    
 BOUNDARY      7   LAYER   1   ROW     1   COL     7   RATE    -88.1250    
 BOUNDARY      8   LAYER   1   ROW     1   COL     8   RATE    -88.1250    
 BOUNDARY      9   LAYER   1   ROW     1   COL     9   RATE    -88.1250    
 BOUNDARY     10   LAYER   1   ROW     1   COL    10   RATE    -88.1250    
 BOUNDARY     11   LAYER   1   ROW     1   COL    11   RATE    -88.1250    
 BOUNDARY     12   LAYER   1   ROW     1   COL    12   RATE    -15.5712    
 BOUNDARY     13   LAYER   1   ROW     1   COL    13   RATE     0.00000    
 BOUNDARY     14   LAYER   1   ROW     1   COL    14   RATE     0.00000    
 BOUNDARY     15   LAYER   1   ROW     1   COL    15   RATE     0.00000    
 BOUNDARY     16   LAYER   1   ROW     2   COL     1   RATE     0.00000    
 BOUNDARY     17   LAYER   1   ROW     2   COL     2   RATE    -4.15193    
 BOUNDARY     18   LAYER   1   ROW     2   COL     3   RATE    -25.5245    
 BOUNDARY     19   LAYER   1   ROW     2   COL     4   RATE    -88.1250    
 BOUNDARY     20   LAYER   1   ROW     2   COL     5   RATE    -88.1250    
 BOUNDARY     21   LAYER   1   ROW     2   COL     6   RATE    -88.1250    
 BOUNDARY     22   LAYER   1   ROW     2   COL     7   RATE    -88.1250    
 BOUNDARY     23   LAYER   1   ROW     2   COL     8   RATE    -88.1250    
 BOUNDARY     24   LAYER   1   ROW     2   COL     9   RATE    -88.1250    
 BOUNDARY     25   LAYER   1   ROW     2   COL    10   RATE    -88.1250    
 BOUNDARY     26   LAYER   1   ROW     2   COL    11   RATE    -88.1250    
 BOUNDARY     27   LAYER   1   ROW     2   COL    12   RATE    -17.1068    
 BOUNDARY     28   LAYER   1   ROW     2   COL    13   RATE   -0.316659    
 BOUNDARY     29   LAYER   1   ROW     2   COL    14   RATE     0.00000    
 BOUNDARY     30   LAYER   1   ROW     2   COL    15   RATE     0.00000    
 BOUNDARY     31   LAYER   1   ROW     3   COL     1   RATE     0.00000    
 BOUNDARY     32   LAYER   1   ROW     3   COL     2   RATE     0.00000    
 BOUNDARY     33   LAYER   1   ROW     3   COL     3   RATE    -20.3655    
 BOUNDARY     34   LAYER   1   ROW     3   COL     4   RATE    -88.1250    
 BOUNDARY     35   LAYER   1   ROW     3   COL     5   RATE    -88.1250    
 BOUNDARY     36   LAYER   1   ROW     3   COL     6   RATE    -88.1250    
 BOUNDARY     37   LAYER   1   ROW     3   COL     7   RATE    -88.1250    
 BOUNDARY     38   LAYER   1   ROW     3   COL     8   RATE    -88.1250    
 BOUNDARY     39   LAYER   1   ROW     3   COL     9   RATE    -88.1250    
 BOUNDARY     40   LAYER   1   ROW     3   COL    10   RATE    -88.1250    
 BOUNDARY     41   LAYER   1   ROW     3   COL    11   RATE    -88.1250    
 BOUNDARY     42   LAYER   1   ROW     3   COL    12   RATE    -19.6969    
 BOUNDARY     43   LAYER   1   ROW     3   COL    13   RATE    -1.89567    
 BOUNDARY     44   LAYER   1   ROW     3   COL    14   RATE     0.00000    
 BOUNDARY     45   LAYER   1   ROW     3   COL    15   RATE     0.00000    
 BOUNDARY     46   LAYER   1   ROW     4   COL     1   RATE     0.00000    
 BOUNDARY     47   LAYER   1   ROW     4   COL     2   RATE    -2.82457    
 BOUNDARY     48   LAYER   1   ROW     4   COL     3   RATE    -23.8021    
 BOUNDARY     49   LAYER   1   ROW     4   COL     4   RATE    -88.1250    
 BOUNDARY     50   LAYER   1   ROW     4   COL     5   RATE    -88.1250    
 BOUNDARY     51   LAYER   1   ROW     4   COL     6   RATE    -88.1250    
 BOUNDARY     52   LAYER   1   ROW     4   COL     7   RATE    -88.1250    
 BOUNDARY     53   LAYER   1   ROW     4   COL     8   RATE    -88.1250    
 BOUNDARY     54   LAYER   1   ROW     4   COL     9   RATE    -88.1250    
 BOUNDARY     55   LAYER   1   ROW     4   COL    10   RATE    -88.1250    
 BOUNDARY     56   LAYER   1   ROW     4   COL    11   RATE    -88.1250    
 BOUNDARY     57   LAYER   1   ROW     4   COL    12   RATE    -22.1635    
 BOUNDARY     58   LAYER   1   ROW     4   COL    13   RATE    -3.18005    
 BOUNDARY     59   LAYER   1   ROW     4   COL    14   RATE     0.00000    
 BOUNDARY     60   LAYER   1   ROW     4   COL    15   RATE     0.00000    
 BOUNDARY     61   LAYER   1   ROW     5   COL     1   RATE     0.00000    
 BOUNDARY     62   LAYER   1   ROW     5   COL     2   RATE    -5.44845    
 BOUNDARY     63   LAYER   1   ROW     5   COL     3   RATE    -31.0557    
 BOUNDARY     64   LAYER   1   ROW     5   COL     4   RATE    -88.1250    
 BOUNDARY     65   LAYER   1   ROW     5   COL     5   RATE    -88.1250    
 BOUNDARY     66   LAYER   1   ROW     5   COL     6   RATE    -88.1250    
 BOUNDARY     67   LAYER   1   ROW     5   COL     7   RATE    -88.1250    
 BOUNDARY     68   LAYER   1   ROW     5   COL     8   RATE    -88.1250    
 BOUNDARY     69   LAYER   1   ROW     5   COL     9   RATE    -88.1250    
 BOUNDARY     70   LAYER   1   ROW     5   COL    10   RATE    -88.1250    
 BOUNDARY     71   LAYER   1   ROW     5   COL    11   RATE    -88.1250    
 BOUNDARY     72   LAYER   1   ROW     5   COL    12   RATE    -23.8650    
 BOUNDARY     73   LAYER   1   ROW     5   COL    13   RATE    -3.96885    
 BOUNDARY     74   LAYER   1   ROW     5   COL    14   RATE     0.00000    
 BOUNDARY     75   LAYER   1   ROW     5   COL    15   RATE     0.00000    
 BOUNDARY     76   LAYER   1   ROW     6   COL     1   RATE     0.00000    
 BOUNDARY     77   LAYER   1   ROW     6   COL     2   RATE    -4.18568    
 BOUNDARY     78   LAYER   1   ROW     6   COL     3   RATE    -34.4814    
 BOUNDARY     79   LAYER   1   ROW     6   COL     4   RATE    -88.1250    
 BOUNDARY     80   LAYER   1   ROW     6   COL     5   RATE    -88.1250    
 BOUNDARY     81   LAYER   1   ROW     6   COL     6   RATE    -88.1250    
 BOUNDARY     82   LAYER   1   ROW     6   COL     7   RATE    -88.1250    
 BOUNDARY     83   LAYER   1   ROW     6   COL     8   RATE    -88.1250    
 BOUNDARY     84   LAYER   1   ROW     6   COL     9   RATE    -88.1250    
 BOUNDARY     85   LAYER   1   ROW     6   COL    10   RATE    -88.1250    
 BOUNDARY     86   LAYER   1   ROW     6   COL    11   RATE    -88.1250    
 BOUNDARY     87   LAYER   1   ROW     6   COL    12   RATE    -24.4365    
 BOUNDARY     88   LAYER   1   ROW     6   COL    13   RATE    -3.92957    
 BOUNDARY     89   LAYER   1   ROW     6   COL    14   RATE     0.00000    
 BOUNDARY     90   LAYER   1   ROW     6   COL    15   RATE     0.00000    
 BOUNDARY     91   LAYER   1   ROW     7   COL     1   RATE     0.00000    
 BOUNDARY     92   LAYER   1   ROW     7   COL     2   RATE    -1.09480    
 BOUNDARY     93   LAYER   1   ROW     7   COL     3   RATE    -40.6341    
 BOUNDARY     94   LAYER   1   ROW     7   COL     4   RATE    -88.1250    
 BOUNDARY     95   LAYER   1   ROW     7   COL     5   RATE    -88.1250    
 BOUNDARY     96   LAYER   1   ROW     7   COL     6   RATE    -88.1250    
 BOUNDARY     97   LAYER   1   ROW     7   COL     7   RATE    -88.1250    
 BOUNDARY     98   LAYER   1   ROW     7   COL     8   RATE    -88.1250    
 BOUNDARY     99   LAYER   1   ROW     7   COL     9   RATE    -88.1250    
 BOUNDARY    100   LAYER   1   ROW     7   COL    10   RATE    -88.1250    
 BOUNDARY    101   LAYER   1   ROW     7   COL    11   RATE    -88.1250    
 BOUNDARY    102   LAYER   1   ROW     7   COL    12   RATE    -24.3000    
 BOUNDARY    103   LAYER   1   ROW     7   COL    13   RATE    -3.29129    
 BOUNDARY    104   LAYER   1   ROW     7   COL    14   RATE     0.00000    
 BOUNDARY    105   LAYER   1   ROW     7   COL    15   RATE     0.00000    
 BOUNDARY    106   LAYER   1   ROW     8   COL     1   RATE     0.00000    
 BOUNDARY    107   LAYER   1   ROW     8   COL     2   RATE    -10.6650    
 BOUNDARY    108   LAYER   1   ROW     8   COL     3   RATE    -88.1250    
 BOUNDARY    109   LAYER   1   ROW     8   COL     4   RATE    -88.1250    
 BOUNDARY    110   LAYER   1   ROW     8   COL     5   RATE    -88.1250    
 BOUNDARY    111   LAYER   1   ROW     8   COL     6   RATE    -88.1250    
 BOUNDARY    112   LAYER   1   ROW     8   COL     7   RATE    -88.1250    
 BOUNDARY    113   LAYER   1   ROW     8   COL     8   RATE    -88.1250    
 BOUNDARY    114   LAYER   1   ROW     8   COL     9   RATE    -88.1250    
 BOUNDARY    115   LAYER   1   ROW     8   COL    10   RATE    -88.1250    
 BOUNDARY    116   LAYER   1   ROW     8   COL    11   RATE    -88.1250    
 BOUNDARY    117   LAYER   1   ROW     8   COL    12   RATE    -24.6515    
 BOUNDARY    118   LAYER   1   ROW     8   COL    13   RATE    -3.30570    
 BOUNDARY    119   LAYER   1   ROW     8   COL    14   RATE     0.00000    
 BOUNDARY    120   LAYER   1   ROW     8   COL    15   RATE     0.00000    
 BOUNDARY    121   LAYER   1   ROW     9   COL     1   RATE    -17.3563    
 BOUNDARY    122   LAYER   1   ROW     9   COL     2   RATE    -57.5868    
 BOUNDARY    123   LAYER   1   ROW     9   COL     3   RATE    -88.1250    
 BOUNDARY    124   LAYER   1   ROW     9   COL     4   RATE    -88.1250    
 BOUNDARY    125   LAYER   1   ROW     9   COL     5   RATE    -88.1250    
 BOUNDARY    126   LAYER   1   ROW     9   COL     6   RATE    -88.1250    
 BOUNDARY    127   LAYER   1   ROW     9   COL     7   RATE    -88.1250    
 BOUNDARY    128   LAYER   1   ROW     9   COL     8   RATE    -88.1250    
 BOUNDARY    129   LAYER   1   ROW     9   COL     9   RATE    -88.1250    
 BOUNDARY    130   LAYER   1   ROW     9   COL    10   RATE    -88.1250    
 BOUNDARY    131   LAYER   1   ROW     9   COL    11   RATE    -88.1250    
 BOUNDARY    132   LAYER   1   ROW     9   COL    12   RATE    -25.6328    
 BOUNDARY    133   LAYER   1   ROW     9   COL    13   RATE    -4.04646    
 BOUNDARY    134   LAYER   1   ROW     9   COL    14   RATE     0.00000    
 BOUNDARY    135   LAYER   1   ROW     9   COL    15   RATE     0.00000    
 BOUNDARY    136   LAYER   1   ROW    10   COL     1   RATE    -64.8538    
 BOUNDARY    137   LAYER   1   ROW    10   COL     2   RATE    -88.1250    
 BOUNDARY    138   LAYER   1   ROW    10   COL     3   RATE    -88.1250    
 BOUNDARY    139   LAYER   1   ROW    10   COL     4   RATE    -88.1250    
 BOUNDARY    140   LAYER   1   ROW    10   COL     5   RATE    -88.1250    
 BOUNDARY    141   LAYER   1   ROW    10   COL     6   RATE    -88.1250    
 BOUNDARY    142   LAYER   1   ROW    10   COL     7   RATE    -88.1250    
 BOUNDARY    143   LAYER   1   ROW    10   COL     8   RATE    -88.1250    
 BOUNDARY    144   LAYER   1   ROW    10   COL     9   RATE    -88.1250    
 BOUNDARY    145   LAYER   1   ROW    10   COL    10   RATE    -88.1250    
 BOUNDARY    146   LAYER   1   ROW    10   COL    11   RATE    -88.1250    
 BOUNDARY    147   LAYER   1   ROW    10   COL    12   RATE    -26.3408    
 BOUNDARY    148   LAYER   1   ROW    10   COL    13   RATE    -4.51942    
 BOUNDARY    149   LAYER   1   ROW    10   COL    14   RATE     0.00000    
 BOUNDARY    150   LAYER   1   ROW    10   COL    15   RATE     0.00000    

 HEAD WILL BE SAVED ON UNIT 1017 AT END OF TIME STEP    2, STRESS PERIOD    4
WEL   no.    1 value from time series:   0.0000     for time:  62.00     to  63.00    
WEL   no.    2 value from time series:   0.0000     for time:  62.00     to  63.00    
RIV   no.    1 value from time series:   101.00     for time:  62.00     to  63.00    
RIV   no.    2 value from time series:   101.00     for time:  62.00     to  63.00    
RIV   no.    3 value from time series:   111.50     for time:  62.00     to  63.00    
RIV   no.    4 value from time series:   111.50     for time:  62.00     to  63.00    
RIV   no.    5 value from time series:   115.10     for time:  62.00     to  63.00    
RIV   no.    6 value from time series:   115.10     for time:  62.00     to  63.00    
RIV   no.    7 value from time series:   104.00     for time:  62.00     to  63.00    
RIV   no.    8 value from time series:   104.00     for time:  62.00     to  63.00    
RIV   no.    9 value from time series:   113.50     for time:  62.00     to  63.00    
RIV   no.   10 value from time series:   113.50     for time:  62.00     to  63.00    
WEL   no.    1 value from time series:   0.0000     for time:  62.00     to  63.00    
WEL   no.    2 value from time series:   0.0000     for time:  62.00     to  63.00    
RIV   no.    1 value from time series:   101.00     for time:  62.00     to  63.00    
RIV   no.    2 value from time series:   101.00     for time:  62.00     to  63.00    
RIV   no.    3 value from time series:   111.50     for time:  62.00     to  63.00    
RIV   no.    4 value from time series:   111.50     for time:  62.00     to  63.00    
RIV   no.    5 value from time series:   115.10     for time:  62.00     to  63.00    
RIV   no.    6 value from time series:   115.10     for time:  62.00     to  63.00    
RIV   no.    7 value from time series:   104.00     for time:  62.00     to  63.00    
RIV   no.    8 value from time series:   104.00     for time:  62.00     to  63.00    
RIV   no.    9 value from time series:   113.50     for time:  62.00     to  63.00    
RIV   no.   10 value from time series:   113.50     for time:  62.00     to  63.00    

 OUTPUT CONTROL FOR STRESS PERIOD    4   TIME STEP    3
    SAVE BUDGET
    SAVE HEAD
    SAVE HEAD FOR ALL LAYERS
 UBDSV1 SAVING          STORAGE ON UNIT   1016 AT TIME STEP      3, STRESS PERIOD      4
 UBDSV1 SAVING FLOW RIGHT FACE  ON UNIT   1016 AT TIME STEP      3, STRESS PERIOD      4
 UBDSV1 SAVING FLOW FRONT FACE  ON UNIT   1016 AT TIME STEP      3, STRESS PERIOD      4
 UBDSV1 SAVING FLOW LOWER FACE  ON UNIT   1016 AT TIME STEP      3, STRESS PERIOD      4
 UBDSV4 SAVING WELLS NEAR RIVER ON UNIT   1016 AT TIME STEP      3, STRESS PERIOD      4

 WELLS NEAR RIVER   PERIOD  4   STEP  3
 BOUNDARY      1   LAYER   2   ROW     8   COL     4   RATE     0.00000      WELL_2
 BOUNDARY      2   LAYER   2   ROW     3   COL     4   RATE     0.00000      WELL_1
 UBDSV4 SAVING RIVER            ON UNIT   1016 AT TIME STEP      3, STRESS PERIOD      4

 RIVER              PERIOD  4   STEP  3
 BOUNDARY      1   LAYER   1   ROW     1   COL    15   RATE    -4809.13    
 BOUNDARY      2   LAYER   1   ROW     2   COL    15   RATE    -5927.15      RIV2
 BOUNDARY      3   LAYER   1   ROW     3   COL    15   RATE    -2183.72      RIV3
 BOUNDARY      4   LAYER   1   ROW     4   COL    15   RATE    -3644.14    
 BOUNDARY      5   LAYER   1   ROW     5   COL    15   RATE    -2285.25    
 BOUNDARY      6   LAYER   1   ROW     6   COL    15   RATE    -1636.01    
 BOUNDARY      7   LAYER   1   ROW     7   COL    15   RATE    -6117.21      RIVX
 BOUNDARY      8   LAYER   1   ROW     8   COL    15   RATE    -5959.12      RIVX
 BOUNDARY      9   LAYER   1   ROW     9   COL    15   RATE    -2160.68      RIVX
 BOUNDARY     10   LAYER   1   ROW    10   COL    15   RATE    -3059.38    

 GHB LAKES          PERIOD  4   STEP  3
 BOUNDARY      1   LAYER   1   ROW     3   COL     1   RATE    -14551.6    
 BOUNDARY      2   LAYER   1   ROW     7   COL     1   RATE    -1904.46      GHB2_UPPER
 BOUNDARY      3   LAYER   1   ROW     7   COL     1   RATE    -13257.8      GHB2_LOWER
 UBDSV4 SAVING RECHARGE         ON UNIT   1016 AT TIME STEP      3, STRESS PERIOD      4

 RECHARGE           PERIOD  4   STEP  3
 BOUNDARY      1   LAYER   1   ROW     1   COL     1   RATE     633.333    
 BOUNDARY      2   LAYER   1   ROW     1   COL     2   RATE     633.333    
 BOUNDARY      3   LAYER   1   ROW     1   COL     3   RATE     633.333    
 BOUNDARY      4   LAYER   1   ROW     1   COL     4   RATE     633.333    
 BOUNDARY      5   LAYER   1   ROW     1   COL     5   RATE     633.333    
 BOUNDARY      6   LAYER   1   ROW     1   COL     6   RATE     633.333    
 BOUNDARY      7   LAYER   1   ROW     1   COL     7   RATE     633.333    
 BOUNDARY      8   LAYER   1   ROW     1   COL     8   RATE     633.333    
 BOUNDARY      9   LAYER   1   ROW     1   COL     9   RATE     633.333    
 BOUNDARY     10   LAYER   1   ROW     1   COL    10   RATE     633.333    
 BOUNDARY     11   LAYER   1   ROW     1   COL    11   RATE     633.333    
 BOUNDARY     12   LAYER   1   ROW     1   COL    12   RATE     633.333    
 BOUNDARY     13   LAYER   1   ROW     1   COL    13   RATE     633.333    
 BOUNDARY     14   LAYER   1   ROW     1   COL    14   RATE     633.333    
 BOUNDARY     15   LAYER   1   ROW     1   COL    15   RATE     633.333    
 BOUNDARY     16   LAYER   1   ROW     2   COL     1   RATE     633.333    
 BOUNDARY     17   LAYER   1   ROW     2   COL     2   RATE     633.333    
 BOUNDARY     18   LAYER   1   ROW     2   COL     3   RATE     633.333    
 BOUNDARY     19   LAYER   1   ROW     2   COL     4   RATE     633.333    
 BOUNDARY     20   LAYER   1   ROW     2   COL     5   RATE     633.333    
 BOUNDARY     21   LAYER   1   ROW     2   COL     6   RATE     633.333    
 BOUNDARY     22   LAYER   1   ROW     2   COL     7   RATE     633.333    
 BOUNDARY     23   LAYER   1   ROW     2   COL     8   RATE     633.333    
 BOUNDARY     24   LAYER   1   ROW     2   COL     9   RATE     633.333    
 BOUNDARY     25   LAYER   1   ROW     2   COL    10   RATE     633.333    
 BOUNDARY     26   LAYER   1   ROW     2   COL    11   RATE     633.333    
 BOUNDARY     27   LAYER   1   ROW     2   COL    12   RATE     633.333    
 BOUNDARY     28   LAYER   1   ROW     2   COL    13   RATE     633.333    
 BOUNDARY     29   LAYER   1   ROW     2   COL    14   RATE     633.333    
 BOUNDARY     30   LAYER   1   ROW     2   COL    15   RATE     633.333    
 BOUNDARY     31   LAYER   1   ROW     3   COL     1   RATE     633.333    
 BOUNDARY     32   LAYER   1   ROW     3   COL     2   RATE     633.333    
 BOUNDARY     33   LAYER   1   ROW     3   COL     3   RATE     633.333    
 BOUNDARY     34   LAYER   1   ROW     3   COL     4   RATE     633.333    
 BOUNDARY     35   LAYER   1   ROW     3   COL     5   RATE     633.333    
 BOUNDARY     36   LAYER   1   ROW     3   COL     6   RATE     633.333    
 BOUNDARY     37   LAYER   1   ROW     3   COL     7   RATE     633.333    
 BOUNDARY     38   LAYER   1   ROW     3   COL     8   RATE     633.333    
 BOUNDARY     39   LAYER   1   ROW     3   COL     9   RATE     633.333    
 BOUNDARY     40   LAYER   1   ROW     3   COL    10   RATE     633.333    
 BOUNDARY     41   LAYER   1   ROW     3   COL    11   RATE     633.333    
 BOUNDARY     42   LAYER   1   ROW     3   COL    12   RATE     633.333    
 BOUNDARY     43   LAYER   1   ROW     3   COL    13   RATE     633.333    
 BOUNDARY     44   LAYER   1   ROW     3   COL    14   RATE     633.333    
 BOUNDARY     45   LAYER   1   ROW     3   COL    15   RATE     633.333    
 BOUNDARY     46   LAYER   1   ROW     4   COL     1   RATE     633.333    
 BOUNDARY     47   LAYER   1   ROW     4   COL     2   RATE     633.333    
 BOUNDARY     48   LAYER   1   ROW     4   COL     3   RATE     633.333    
 BOUNDARY     49   LAYER   1   ROW     4   COL     4   RATE     633.333    
 BOUNDARY     50   LAYER   1   ROW     4   COL     5   RATE     633.333    
 BOUNDARY     51   LAYER   1   ROW     4   COL     6   RATE     633.333    
 BOUNDARY     52   LAYER   1   ROW     4   COL     7   RATE     633.333    
 BOUNDARY     53   LAYER   1   ROW     4   COL     8   RATE     633.333    
 BOUNDARY     54   LAYER   1   ROW     4   COL     9   RATE     633.333    
 BOUNDARY     55   LAYER   1   ROW     4   COL    10   RATE     633.333    
 BOUNDARY     56   LAYER   1   ROW     4   COL    11   RATE     633.333    
 BOUNDARY     57   LAYER   1   ROW     4   COL    12   RATE     633.333    
 BOUNDARY     58   LAYER   1   ROW     4   COL    13   RATE     633.333    
 BOUNDARY     59   LAYER   1   ROW     4   COL    14   RATE     633.333    
 BOUNDARY     60   LAYER   1   ROW     4   COL    15   RATE     633.333    
 BOUNDARY     61   LAYER   1   ROW     5   COL     1   RATE     633.333    
 BOUNDARY     62   LAYER   1   ROW     5   COL     2   RATE     633.333    
 BOUNDARY     63   LAYER   1   ROW     5   COL     3   RATE     633.333    
 BOUNDARY     64   LAYER   1   ROW     5   COL     4   RATE     633.333    
 BOUNDARY     65   LAYER   1   ROW     5   COL     5   RATE     633.333    
 BOUNDARY     66   LAYER   1   ROW     5   COL     6   RATE     633.333    
 BOUNDARY     67   LAYER   1   ROW     5   COL     7   RATE     633.333    
 BOUNDARY     68   LAYER   1   ROW     5   COL     8   RATE     633.333    
 BOUNDARY     69   LAYER   1   ROW     5   COL     9   RATE     633.333    
 BOUNDARY     70   LAYER   1   ROW     5   COL    10   RATE     633.333    
 BOUNDARY     71   LAYER   1   ROW     5   COL    11   RATE     633.333    
 BOUNDARY     72   LAYER   1   ROW     5   COL    12   RATE     633.333    
 BOUNDARY     73   LAYER   1   ROW     5   COL    13   RATE     633.333    
 BOUNDARY     74   LAYER   1   ROW     5   COL    14   RATE     633.333    
 BOUNDARY     75   LAYER   1   ROW     5   COL    15   RATE     633.333    
 BOUNDARY     76   LAYER   1   ROW     6   COL     1   RATE     633.333    
 BOUNDARY     77   LAYER   1   ROW     6   COL     2   RATE     633.333    
 BOUNDARY     78   LAYER   1   ROW     6   COL     3   RATE     633.333    
 BOUNDARY     79   LAYER   1   ROW     6   COL     4   RATE     633.333    
 BOUNDARY     80   LAYER   1   ROW     6   COL     5   RATE     633.333    
 BOUNDARY     81   LAYER   1   ROW     6   COL     6   RATE     633.333    
 BOUNDARY     82   LAYER   1   ROW     6   COL     7   RATE     633.333    
 BOUNDARY     83   LAYER   1   ROW     6   COL     8   RATE     633.333    
 BOUNDARY     84   LAYER   1   ROW     6   COL     9   RATE     633.333    
 BOUNDARY     85   LAYER   1   ROW     6   COL    10   RATE     633.333    
 BOUNDARY     86   LAYER   1   ROW     6   COL    11   RATE     633.333    
 BOUNDARY     87   LAYER   1   ROW     6   COL    12   RATE     633.333    
 BOUNDARY     88   LAYER   1   ROW     6   COL    13   RATE     633.333    
 BOUNDARY     89   LAYER   1   ROW     6   COL    14   RATE     633.333    
 BOUNDARY     90   LAYER   1   ROW     6   COL    15   RATE     633.333    
 BOUNDARY     91   LAYER   1   ROW     7   COL     1   RATE     633.333    
 BOUNDARY     92   LAYER   1   ROW     7   COL     2   RATE     633.333    
 BOUNDARY     93   LAYER   1   ROW     7   COL     3   RATE     633.333    
 BOUNDARY     94   LAYER   1   ROW     7   COL     4   RATE     633.333    
 BOUNDARY     95   LAYER   1   ROW     7   COL     5   RATE     633.333    
 BOUNDARY     96   LAYER   1   ROW     7   COL     6   RATE     633.333    
 BOUNDARY     97   LAYER   1   ROW     7   COL     7   RATE     633.333    
 BOUNDARY     98   LAYER   1   ROW     7   COL     8   RATE     633.333    
 BOUNDARY     99   LAYER   1   ROW     7   COL     9   RATE     633.333    
 BOUNDARY    100   LAYER   1   ROW     7   COL    10   RATE     633.333    
 BOUNDARY    101   LAYER   1   ROW     7   COL    11   RATE     633.333    
 BOUNDARY    102   LAYER   1   ROW     7   COL    12   RATE     633.333    
 BOUNDARY    103   LAYER   1   ROW     7   COL    13   RATE     633.333    
 BOUNDARY    104   LAYER   1   ROW     7   COL    14   RATE     633.333    
 BOUNDARY    105   LAYER   1   ROW     7   COL    15   RATE     633.333    
 BOUNDARY    106   LAYER   1   ROW     8   COL     1   RATE     633.333    
 BOUNDARY    107   LAYER   1   ROW     8   COL     2   RATE     633.333    
 BOUNDARY    108   LAYER   1   ROW     8   COL     3   RATE     633.333    
 BOUNDARY    109   LAYER   1   ROW     8   COL     4   RATE     633.333    
 BOUNDARY    110   LAYER   1   ROW     8   COL     5   RATE     633.333    
 BOUNDARY    111   LAYER   1   ROW     8   COL     6   RATE     633.333    
 BOUNDARY    112   LAYER   1   ROW     8   COL     7   RATE     633.333    
 BOUNDARY    113   LAYER   1   ROW     8   COL     8   RATE     633.333    
 BOUNDARY    114   LAYER   1   ROW     8   COL     9   RATE     633.333    
 BOUNDARY    115   LAYER   1   ROW     8   COL    10   RATE     633.333    
 BOUNDARY    116   LAYER   1   ROW     8   COL    11   RATE     633.333    
 BOUNDARY    117   LAYER   1   ROW     8   COL    12   RATE     633.333    
 BOUNDARY    118   LAYER   1   ROW     8   COL    13   RATE     633.333    
 BOUNDARY    119   LAYER   1   ROW     8   COL    14   RATE     633.333    
 BOUNDARY    120   LAYER   1   ROW     8   COL    15   RATE     633.333    
 BOUNDARY    121   LAYER   1   ROW     9   COL     1   RATE     633.333    
 BOUNDARY    122   LAYER   1   ROW     9   COL     2   RATE     633.333    
 BOUNDARY    123   LAYER   1   ROW     9   COL     3   RATE     633.333    
 BOUNDARY    124   LAYER   1   ROW     9   COL     4   RATE     633.333    
 BOUNDARY    125   LAYER   1   ROW     9   COL     5   RATE     633.333    
 BOUNDARY    126   LAYER   1   ROW     9   COL     6   RATE     633.333    
 BOUNDARY    127   LAYER   1   ROW     9   COL     7   RATE     633.333    
 BOUNDARY    128   LAYER   1   ROW     9   COL     8   RATE     633.333    
 BOUNDARY    129   LAYER   1   ROW     9   COL     9   RATE     633.333    
 BOUNDARY    130   LAYER   1   ROW     9   COL    10   RATE     633.333    
 BOUNDARY    131   LAYER   1   ROW     9   COL    11   RATE     633.333    
 BOUNDARY    132   LAYER   1   ROW     9   COL    12   RATE     633.333    
 BOUNDARY    133   LAYER   1   ROW     9   COL    13   RATE     633.333    
 BOUNDARY    134   LAYER   1   ROW     9   COL    14   RATE     633.333    
 BOUNDARY    135   LAYER   1   ROW     9   COL    15   RATE     633.333    
 BOUNDARY    136   LAYER   1   ROW    10   COL     1   RATE     633.333    
 BOUNDARY    137   LAYER   1   ROW    10   COL     2   RATE     633.333    
 BOUNDARY    138   LAYER   1   ROW    10   COL     3   RATE     633.333    
 BOUNDARY    139   LAYER   1   ROW    10   COL     4   RATE     633.333    
 BOUNDARY    140   LAYER   1   ROW    10   COL     5   RATE     633.333    
 BOUNDARY    141   LAYER   1   ROW    10   COL     6   RATE     633.333    
 BOUNDARY    142   LAYER   1   ROW    10   COL     7   RATE     633.333    
 BOUNDARY    143   LAYER   1   ROW    10   COL     8   RATE     633.333    
 BOUNDARY    144   LAYER   1   ROW    10   COL     9   RATE     633.333    
 BOUNDARY    145   LAYER   1   ROW    10   COL    10   RATE     633.333    
 BOUNDARY    146   LAYER   1   ROW    10   COL    11   RATE     633.333    
 BOUNDARY    147   LAYER   1   ROW    10   COL    12   RATE     633.333    
 BOUNDARY    148   LAYER   1   ROW    10   COL    13   RATE     633.333    
 BOUNDARY    149   LAYER   1   ROW    10   COL    14   RATE     633.333    
 BOUNDARY    150   LAYER   1   ROW    10   COL    15   RATE     633.333    
 UBDSV4 SAVING ET SEGS          ON UNIT   1016 AT TIME STEP      3, STRESS PERIOD      4

 ET SEGS            PERIOD  4   STEP  3
 BOUNDARY      1   LAYER   1   ROW     1   COL     1   RATE    -2.11460    
 BOUNDARY      2   LAYER   1   ROW     1   COL     2   RATE    -8.19100    
 BOUNDARY      3   LAYER   1   ROW     1   COL     3   RATE    -47.5876    
 BOUNDARY      4   LAYER   1   ROW     1   COL     4   RATE    -88.5417    
 BOUNDARY      5   LAYER   1   ROW     1   COL     5   RATE    -88.5417    
 BOUNDARY      6   LAYER   1   ROW     1   COL     6   RATE    -88.5417    
 BOUNDARY      7   LAYER   1   ROW     1   COL     7   RATE    -88.5417    
 BOUNDARY      8   LAYER   1   ROW     1   COL     8   RATE    -88.5417    
 BOUNDARY      9   LAYER   1   ROW     1   COL     9   RATE    -88.5417    
 BOUNDARY     10   LAYER   1   ROW     1   COL    10   RATE    -88.5417    
 BOUNDARY     11   LAYER   1   ROW     1   COL    11   RATE    -88.5417    
 BOUNDARY     12   LAYER   1   ROW     1   COL    12   RATE    -15.6777    
 BOUNDARY     13   LAYER   1   ROW     1   COL    13   RATE     0.00000    
 BOUNDARY     14   LAYER   1   ROW     1   COL    14   RATE     0.00000    
 BOUNDARY     15   LAYER   1   ROW     1   COL    15   RATE     0.00000    
 BOUNDARY     16   LAYER   1   ROW     2   COL     1   RATE     0.00000    
 BOUNDARY     17   LAYER   1   ROW     2   COL     2   RATE    -4.18053    
 BOUNDARY     18   LAYER   1   ROW     2   COL     3   RATE    -25.6842    
 BOUNDARY     19   LAYER   1   ROW     2   COL     4   RATE    -88.5417    
 BOUNDARY     20   LAYER   1   ROW     2   COL     5   RATE    -88.5417    
 BOUNDARY     21   LAYER   1   ROW     2   COL     6   RATE    -88.5417    
 BOUNDARY     22   LAYER   1   ROW     2   COL     7   RATE    -88.5417    
 BOUNDARY     23   LAYER   1   ROW     2   COL     8   RATE    -88.5417    
 BOUNDARY     24   LAYER   1   ROW     2   COL     9   RATE    -88.5417    
 BOUNDARY     25   LAYER   1   ROW     2   COL    10   RATE    -88.5417    
 BOUNDARY     26   LAYER   1   ROW     2   COL    11   RATE    -88.5417    
 BOUNDARY     27   LAYER   1   ROW     2   COL    12   RATE    -17.2205    
 BOUNDARY     28   LAYER   1   ROW     2   COL    13   RATE   -0.327862    
 BOUNDARY     29   LAYER   1   ROW     2   COL    14   RATE     0.00000    
 BOUNDARY     30   LAYER   1   ROW     2   COL    15   RATE     0.00000    
 BOUNDARY     31   LAYER   1   ROW     3   COL     1   RATE     0.00000    
 BOUNDARY     32   LAYER   1   ROW     3   COL     2   RATE     0.00000    
 BOUNDARY     33   LAYER   1   ROW     3   COL     3   RATE    -20.4927    
 BOUNDARY     34   LAYER   1   ROW     3   COL     4   RATE    -88.5417    
 BOUNDARY     35   LAYER   1   ROW     3   COL     5   RATE    -88.5417    
 BOUNDARY     36   LAYER   1   ROW     3   COL     6   RATE    -88.5417    
 BOUNDARY     37   LAYER   1   ROW     3   COL     7   RATE    -88.5417    
 BOUNDARY     38   LAYER   1   ROW     3   COL     8   RATE    -88.5417    
 BOUNDARY     39   LAYER   1   ROW     3   COL     9   RATE    -88.5417    
 BOUNDARY     40   LAYER   1   ROW     3   COL    10   RATE    -88.5417    
 BOUNDARY     41   LAYER   1   ROW     3   COL    11   RATE    -88.5417    
 BOUNDARY     42   LAYER   1   ROW     3   COL    12   RATE    -19.8229    
 BOUNDARY     43   LAYER   1   ROW     3   COL    13   RATE    -1.91446    
 BOUNDARY     44   LAYER   1   ROW     3   COL    14   RATE     0.00000    
 BOUNDARY     45   LAYER   1   ROW     3   COL    15   RATE     0.00000    
 BOUNDARY     46   LAYER   1   ROW     4   COL     1   RATE     0.00000    
 BOUNDARY     47   LAYER   1   ROW     4   COL     2   RATE    -2.84709    
 BOUNDARY     48   LAYER   1   ROW     4   COL     3   RATE    -23.9463    
 BOUNDARY     49   LAYER   1   ROW     4   COL     4   RATE    -88.5417    
 BOUNDARY     50   LAYER   1   ROW     4   COL     5   RATE    -88.5417    
 BOUNDARY     51   LAYER   1   ROW     4   COL     6   RATE    -88.5417    
 BOUNDARY     52   LAYER   1   ROW     4   COL     7   RATE    -88.5417    
 BOUNDARY     53   LAYER   1   ROW     4   COL     8   RATE    -88.5417    
 BOUNDARY     54   LAYER   1   ROW     4   COL     9   RATE    -88.5417    
 BOUNDARY     55   LAYER   1   ROW     4   COL    10   RATE    -88.5417    
 BOUNDARY     56   LAYER   1   ROW     4   COL    11   RATE    -88.5417    
 BOUNDARY     57   LAYER   1   ROW     4   COL    12   RATE    -22.3010    
 BOUNDARY     58   LAYER   1   ROW     4   COL    13   RATE    -3.20474    
 BOUNDARY     59   LAYER   1   ROW     4   COL    14   RATE     0.00000    
 BOUNDARY     60   LAYER   1   ROW     4   COL    15   RATE     0.00000    
 BOUNDARY     61   LAYER   1   ROW     5   COL     1   RATE     0.00000    
 BOUNDARY     62   LAYER   1   ROW     5   COL     2   RATE    -5.48350    
 BOUNDARY     63   LAYER   1   ROW     5   COL     3   RATE    -31.3674    
 BOUNDARY     64   LAYER   1   ROW     5   COL     4   RATE    -88.5417    
 BOUNDARY     65   LAYER   1   ROW     5   COL     5   RATE    -88.5417    
 BOUNDARY     66   LAYER   1   ROW     5   COL     6   RATE    -88.5417    
 BOUNDARY     67   LAYER   1   ROW     5   COL     7   RATE    -88.5417    
 BOUNDARY     68   LAYER   1   ROW     5   COL     8   RATE    -88.5417    
 BOUNDARY     69   LAYER   1   ROW     5   COL     9   RATE    -88.5417    
 BOUNDARY     70   LAYER   1   ROW     5   COL    10   RATE    -88.5417    
 BOUNDARY     71   LAYER   1   ROW     5   COL    11   RATE    -88.5417    
 BOUNDARY     72   LAYER   1   ROW     5   COL    12   RATE    -24.0102    
 BOUNDARY     73   LAYER   1   ROW     5   COL    13   RATE    -3.99690    
 BOUNDARY     74   LAYER   1   ROW     5   COL    14   RATE     0.00000    
 BOUNDARY     75   LAYER   1   ROW     5   COL    15   RATE     0.00000    
 BOUNDARY     76   LAYER   1   ROW     6   COL     1   RATE     0.00000    
 BOUNDARY     77   LAYER   1   ROW     6   COL     2   RATE    -4.21458    
 BOUNDARY     78   LAYER   1   ROW     6   COL     3   RATE    -34.8087    
 BOUNDARY     79   LAYER   1   ROW     6   COL     4   RATE    -88.5417    
 BOUNDARY     80   LAYER   1   ROW     6   COL     5   RATE    -88.5417    
 BOUNDARY     81   LAYER   1   ROW     6   COL     6   RATE    -88.5417    
 BOUNDARY     82   LAYER   1   ROW     6   COL     7   RATE    -88.5417    
 BOUNDARY     83   LAYER   1   ROW     6   COL     8   RATE    -88.5417    
 BOUNDARY     84   LAYER   1   ROW     6   COL     9   RATE    -88.5417    
 BOUNDARY     85   LAYER   1   ROW     6   COL    10   RATE    -88.5417    
 BOUNDARY     86   LAYER   1   ROW     6   COL    11   RATE    -88.5417    
 BOUNDARY     87   LAYER   1   ROW     6   COL    12   RATE    -24.5842    
 BOUNDARY     88   LAYER   1   ROW     6   COL    13   RATE    -3.95731    
 BOUNDARY     89   LAYER   1   ROW     6   COL    14   RATE     0.00000    
 BOUNDARY     90   LAYER   1   ROW     6   COL    15   RATE     0.00000    
 BOUNDARY     91   LAYER   1   ROW     7   COL     1   RATE     0.00000    
 BOUNDARY     92   LAYER   1   ROW     7   COL     2   RATE    -1.10862    
 BOUNDARY     93   LAYER   1   ROW     7   COL     3   RATE    -40.9902    
 BOUNDARY     94   LAYER   1   ROW     7   COL     4   RATE    -88.5417    
 BOUNDARY     95   LAYER   1   ROW     7   COL     5   RATE    -88.5417    
 BOUNDARY     96   LAYER   1   ROW     7   COL     6   RATE    -88.5417    
 BOUNDARY     97   LAYER   1   ROW     7   COL     7   RATE    -88.5417    
 BOUNDARY     98   LAYER   1   ROW     7   COL     8   RATE    -88.5417    
 BOUNDARY     99   LAYER   1   ROW     7   COL     9   RATE    -88.5417    
 BOUNDARY    100   LAYER   1   ROW     7   COL    10   RATE    -88.5417    
 BOUNDARY    101   LAYER   1   ROW     7   COL    11   RATE    -88.5417    
 BOUNDARY    102   LAYER   1   ROW     7   COL    12   RATE    -24.4473    
 BOUNDARY    103   LAYER   1   ROW     7   COL    13   RATE    -3.31621    
 BOUNDARY    104   LAYER   1   ROW     7   COL    14   RATE     0.00000    
 BOUNDARY    105   LAYER   1   ROW     7   COL    15   RATE     0.00000    
 BOUNDARY    106   LAYER   1   ROW     8   COL     1   RATE     0.00000    
 BOUNDARY    107   LAYER   1   ROW     8   COL     2   RATE    -10.7464    
 BOUNDARY    108   LAYER   1   ROW     8   COL     3   RATE    -88.5417    
 BOUNDARY    109   LAYER   1   ROW     8   COL     4   RATE    -88.5417    
 BOUNDARY    110   LAYER   1   ROW     8   COL     5   RATE    -88.5417    
 BOUNDARY    111   LAYER   1   ROW     8   COL     6   RATE    -88.5417    
 BOUNDARY    112   LAYER   1   ROW     8   COL     7   RATE    -88.5417    
 BOUNDARY    113   LAYER   1   ROW     8   COL     8   RATE    -88.5417    
 BOUNDARY    114   LAYER   1   ROW     8   COL     9   RATE    -88.5417    
 BOUNDARY    115   LAYER   1   ROW     8   COL    10   RATE    -88.5417    
 BOUNDARY    116   LAYER   1   ROW     8   COL    11   RATE    -88.5417    
 BOUNDARY    117   LAYER   1   ROW     8   COL    12   RATE    -24.8010    
 BOUNDARY    118   LAYER   1   ROW     8   COL    13   RATE    -3.33112    
 BOUNDARY    119   LAYER   1   ROW     8   COL    14   RATE     0.00000    
 BOUNDARY    120   LAYER   1   ROW     8   COL    15   RATE     0.00000    
 BOUNDARY    121   LAYER   1   ROW     9   COL     1   RATE    -17.4697    
 BOUNDARY    122   LAYER   1   ROW     9   COL     2   RATE    -58.0246    
 BOUNDARY    123   LAYER   1   ROW     9   COL     3   RATE    -88.5417    
 BOUNDARY    124   LAYER   1   ROW     9   COL     4   RATE    -88.5417    
 BOUNDARY    125   LAYER   1   ROW     9   COL     5   RATE    -88.5417    
 BOUNDARY    126   LAYER   1   ROW     9   COL     6   RATE    -88.5417    
 BOUNDARY    127   LAYER   1   ROW     9   COL     7   RATE    -88.5417    
 BOUNDARY    128   LAYER   1   ROW     9   COL     8   RATE    -88.5417    
 BOUNDARY    129   LAYER   1   ROW     9   COL     9   RATE    -88.5417    
 BOUNDARY    130   LAYER   1   ROW     9   COL    10   RATE    -88.5417    
 BOUNDARY    131   LAYER   1   ROW     9   COL    11   RATE    -88.5417    
 BOUNDARY    132   LAYER   1   ROW     9   COL    12   RATE    -25.7875    
 BOUNDARY    133   LAYER   1   ROW     9   COL    13   RATE    -4.07596    
 BOUNDARY    134   LAYER   1   ROW     9   COL    14   RATE     0.00000    
 BOUNDARY    135   LAYER   1   ROW     9   COL    15   RATE     0.00000    
 BOUNDARY    136   LAYER   1   ROW    10   COL     1   RATE    -65.3251    
 BOUNDARY    137   LAYER   1   ROW    10   COL     2   RATE    -88.5417    
 BOUNDARY    138   LAYER   1   ROW    10   COL     3   RATE    -88.5417    
 BOUNDARY    139   LAYER   1   ROW    10   COL     4   RATE    -88.5417    
 BOUNDARY    140   LAYER   1   ROW    10   COL     5   RATE    -88.5417    
 BOUNDARY    141   LAYER   1   ROW    10   COL     6   RATE    -88.5417    
 BOUNDARY    142   LAYER   1   ROW    10   COL     7   RATE    -88.5417    
 BOUNDARY    143   LAYER   1   ROW    10   COL     8   RATE    -88.5417    
 BOUNDARY    144   LAYER   1   ROW    10   COL     9   RATE    -88.5417    
 BOUNDARY    145   LAYER   1   ROW    10   COL    10   RATE    -88.5417    
 BOUNDARY    146   LAYER   1   ROW    10   COL    11   RATE    -88.5417    
 BOUNDARY    147   LAYER   1   ROW    10   COL    12   RATE    -26.4991    
 BOUNDARY    148   LAYER   1   ROW    10   COL    13   RATE    -4.55146    
 BOUNDARY    149   LAYER   1   ROW    10   COL    14   RATE     0.00000    
 BOUNDARY    150   LAYER   1   ROW    10   COL    15   RATE     0.00000    

 HEAD WILL BE SAVED ON UNIT 1017 AT END OF TIME STEP    3, STRESS PERIOD    4
WEL   no.    1 value from time series:   0.0000     for time:  63.00     to  64.00    
WEL   no.    2 value from time series:   0.0000     for time:  63.00     to  64.00    
RIV   no.    1 value from time series:   101.00     for time:  63.00     to  64.00    
RIV   no.    2 value from time series:   101.00     for time:  63.00     to  64.00    
RIV   no.    3 value from time series:   111.50     for time:  63.00     to  64.00    
RIV   no.    4 value from time series:   111.50     for time:  63.00     to  64.00    
RIV   no.    5 value from time series:   115.10     for time:  63.00     to  64.00    
RIV   no.    6 value from time series:   115.10     for time:  63.00     to  64.00    
RIV   no.    7 value from time series:   104.00     for time:  63.00     to  64.00    
RIV   no.    8 value from time series:   104.00     for time:  63.00     to  64.00    
RIV   no.    9 value from time series:   113.50     for time:  63.00     to  64.00    
RIV   no.   10 value from time series:   113.50     for time:  63.00     to  64.00    
WEL   no.    1 value from time series:   0.0000     for time:  63.00     to  64.00    
WEL   no.    2 value from time series:   0.0000     for time:  63.00     to  64.00    
RIV   no.    1 value from time series:   101.00     for time:  63.00     to  64.00    
RIV   no.    2 value from time series:   101.00     for time:  63.00     to  64.00    
RIV   no.    3 value from time series:   111.50     for time:  63.00     to  64.00    
RIV   no.    4 value from time series:   111.50     for time:  63.00     to  64.00    
RIV   no.    5 value from time series:   115.10     for time:  63.00     to  64.00    
RIV   no.    6 value from time series:   115.10     for time:  63.00     to  64.00    
RIV   no.    7 value from time series:   104.00     for time:  63.00     to  64.00    
RIV   no.    8 value from time series:   104.00     for time:  63.00     to  64.00    
RIV   no.    9 value from time series:   113.50     for time:  63.00     to  64.00    
RIV   no.   10 value from time series:   113.50     for time:  63.00     to  64.00    

 OUTPUT CONTROL FOR STRESS PERIOD    4   TIME STEP    4
    SAVE BUDGET
    SAVE HEAD
    SAVE HEAD FOR ALL LAYERS
 UBDSV1 SAVING          STORAGE ON UNIT   1016 AT TIME STEP      4, STRESS PERIOD      4
 UBDSV1 SAVING FLOW RIGHT FACE  ON UNIT   1016 AT TIME STEP      4, STRESS PERIOD      4
 UBDSV1 SAVING FLOW FRONT FACE  ON UNIT   1016 AT TIME STEP      4, STRESS PERIOD      4
 UBDSV1 SAVING FLOW LOWER FACE  ON UNIT   1016 AT TIME STEP      4, STRESS PERIOD      4
 UBDSV4 SAVING WELLS NEAR RIVER ON UNIT   1016 AT TIME STEP      4, STRESS PERIOD      4

 WELLS NEAR RIVER   PERIOD  4   STEP  4
 BOUNDARY      1   LAYER   2   ROW     8   COL     4   RATE     0.00000      WELL_2
 BOUNDARY      2   LAYER   2   ROW     3   COL     4   RATE     0.00000      WELL_1
 UBDSV4 SAVING RIVER            ON UNIT   1016 AT TIME STEP      4, STRESS PERIOD      4

 RIVER              PERIOD  4   STEP  4
 BOUNDARY      1   LAYER   1   ROW     1   COL    15   RATE    -4809.74    
 BOUNDARY      2   LAYER   1   ROW     2   COL    15   RATE    -5928.06      RIV2
 BOUNDARY      3   LAYER   1   ROW     3   COL    15   RATE    -2185.30      RIV3
 BOUNDARY      4   LAYER   1   ROW     4   COL    15   RATE    -3645.86    
 BOUNDARY      5   LAYER   1   ROW     5   COL    15   RATE    -2286.84    
 BOUNDARY      6   LAYER   1   ROW     6   COL    15   RATE    -1637.45    
 BOUNDARY      7   LAYER   1   ROW     7   COL    15   RATE    -6118.54      RIVX
 BOUNDARY      8   LAYER   1   ROW     8   COL    15   RATE    -5960.73      RIVX
 BOUNDARY      9   LAYER   1   ROW     9   COL    15   RATE    -2162.78      RIVX
 BOUNDARY     10   LAYER   1   ROW    10   COL    15   RATE    -3061.76    

 GHB LAKES          PERIOD  4   STEP  4
 BOUNDARY      1   LAYER   1   ROW     3   COL     1   RATE    -14555.6    
 BOUNDARY      2   LAYER   1   ROW     7   COL     1   RATE    -1907.73      GHB2_UPPER
 BOUNDARY      3   LAYER   1   ROW     7   COL     1   RATE    -13259.0      GHB2_LOWER
 UBDSV4 SAVING RECHARGE         ON UNIT   1016 AT TIME STEP      4, STRESS PERIOD      4

 RECHARGE           PERIOD  4   STEP  4
 BOUNDARY      1   LAYER   1   ROW     1   COL     1   RATE     636.667    
 BOUNDARY      2   LAYER   1   ROW     1   COL     2   RATE     636.667    
 BOUNDARY      3   LAYER   1   ROW     1   COL     3   RATE     636.667    
 BOUNDARY      4   LAYER   1   ROW     1   COL     4   RATE     636.667    
 BOUNDARY      5   LAYER   1   ROW     1   COL     5   RATE     636.667    
 BOUNDARY      6   LAYER   1   ROW     1   COL     6   RATE     636.667    
 BOUNDARY      7   LAYER   1   ROW     1   COL     7   RATE     636.667    
 BOUNDARY      8   LAYER   1   ROW     1   COL     8   RATE     636.667    
 BOUNDARY      9   LAYER   1   ROW     1   COL     9   RATE     636.667    
 BOUNDARY     10   LAYER   1   ROW     1   COL    10   RATE     636.667    
 BOUNDARY     11   LAYER   1   ROW     1   COL    11   RATE     636.667    
 BOUNDARY     12   LAYER   1   ROW     1   COL    12   RATE     636.667    
 BOUNDARY     13   LAYER   1   ROW     1   COL    13   RATE     636.667    
 BOUNDARY     14   LAYER   1   ROW     1   COL    14   RATE     636.667    
 BOUNDARY     15   LAYER   1   ROW     1   COL    15   RATE     636.667    
 BOUNDARY     16   LAYER   1   ROW     2   COL     1   RATE     636.667    
 BOUNDARY     17   LAYER   1   ROW     2   COL     2   RATE     636.667    
 BOUNDARY     18   LAYER   1   ROW     2   COL     3   RATE     636.667    
 BOUNDARY     19   LAYER   1   ROW     2   COL     4   RATE     636.667    
 BOUNDARY     20   LAYER   1   ROW     2   COL     5   RATE     636.667    
 BOUNDARY     21   LAYER   1   ROW     2   COL     6   RATE     636.667    
 BOUNDARY     22   LAYER   1   ROW     2   COL     7   RATE     636.667    
 BOUNDARY     23   LAYER   1   ROW     2   COL     8   RATE     636.667    
 BOUNDARY     24   LAYER   1   ROW     2   COL     9   RATE     636.667    
 BOUNDARY     25   LAYER   1   ROW     2   COL    10   RATE     636.667    
 BOUNDARY     26   LAYER   1   ROW     2   COL    11   RATE     636.667    
 BOUNDARY     27   LAYER   1   ROW     2   COL    12   RATE     636.667    
 BOUNDARY     28   LAYER   1   ROW     2   COL    13   RATE     636.667    
 BOUNDARY     29   LAYER   1   ROW     2   COL    14   RATE     636.667    
 BOUNDARY     30   LAYER   1   ROW     2   COL    15   RATE     636.667    
 BOUNDARY     31   LAYER   1   ROW     3   COL     1   RATE     636.667    
 BOUNDARY     32   LAYER   1   ROW     3   COL     2   RATE     636.667    
 BOUNDARY     33   LAYER   1   ROW     3   COL     3   RATE     636.667    
 BOUNDARY     34   LAYER   1   ROW     3   COL     4   RATE     636.667    
 BOUNDARY     35   LAYER   1   ROW     3   COL     5   RATE     636.667    
 BOUNDARY     36   LAYER   1   ROW     3   COL     6   RATE     636.667    
 BOUNDARY     37   LAYER   1   ROW     3   COL     7   RATE     636.667    
 BOUNDARY     38   LAYER   1   ROW     3   COL     8   RATE     636.667    
 BOUNDARY     39   LAYER   1   ROW     3   COL     9   RATE     636.667    
 BOUNDARY     40   LAYER   1   ROW     3   COL    10   RATE     636.667    
 BOUNDARY     41   LAYER   1   ROW     3   COL    11   RATE     636.667    
 BOUNDARY     42   LAYER   1   ROW     3   COL    12   RATE     636.667    
 BOUNDARY     43   LAYER   1   ROW     3   COL    13   RATE     636.667    
 BOUNDARY     44   LAYER   1   ROW     3   COL    14   RATE     636.667    
 BOUNDARY     45   LAYER   1   ROW     3   COL    15   RATE     636.667    
 BOUNDARY     46   LAYER   1   ROW     4   COL     1   RATE     636.667    
 BOUNDARY     47   LAYER   1   ROW     4   COL     2   RATE     636.667    
 BOUNDARY     48   LAYER   1   ROW     4   COL     3   RATE     636.667    
 BOUNDARY     49   LAYER   1   ROW     4   COL     4   RATE     636.667    
 BOUNDARY     50   LAYER   1   ROW     4   COL     5   RATE     636.667    
 BOUNDARY     51   LAYER   1   ROW     4   COL     6   RATE     636.667    
 BOUNDARY     52   LAYER   1   ROW     4   COL     7   RATE     636.667    
 BOUNDARY     53   LAYER   1   ROW     4   COL     8   RATE     636.667    
 BOUNDARY     54   LAYER   1   ROW     4   COL     9   RATE     636.667    
 BOUNDARY     55   LAYER   1   ROW     4   COL    10   RATE     636.667    
 BOUNDARY     56   LAYER   1   ROW     4   COL    11   RATE     636.667    
 BOUNDARY     57   LAYER   1   ROW     4   COL    12   RATE     636.667    
 BOUNDARY     58   LAYER   1   ROW     4   COL    13   RATE     636.667    
 BOUNDARY     59   LAYER   1   ROW     4   COL    14   RATE     636.667    
 BOUNDARY     60   LAYER   1   ROW     4   COL    15   RATE     636.667    
 BOUNDARY     61   LAYER   1   ROW     5   COL     1   RATE     636.667    
 BOUNDARY     62   LAYER   1   ROW     5   COL     2   RATE     636.667    
 BOUNDARY     63   LAYER   1   ROW     5   COL     3   RATE     636.667    
 BOUNDARY     64   LAYER   1   ROW     5   COL     4   RATE     636.667    
 BOUNDARY     65   LAYER   1   ROW     5   COL     5   RATE     636.667    
 BOUNDARY     66   LAYER   1   ROW     5   COL     6   RATE     636.667    
 BOUNDARY     67   LAYER   1   ROW     5   COL     7   RATE     636.667    
 BOUNDARY     68   LAYER   1   ROW     5   COL     8   RATE     636.667    
 BOUNDARY     69   LAYER   1   ROW     5   COL     9   RATE     636.667    
 BOUNDARY     70   LAYER   1   ROW     5   COL    10   RATE     636.667    
 BOUNDARY     71   LAYER   1   ROW     5   COL    11   RATE     636.667    
 BOUNDARY     72   LAYER   1   ROW     5   COL    12   RATE     636.667    
 BOUNDARY     73   LAYER   1   ROW     5   COL    13   RATE     636.667    
 BOUNDARY     74   LAYER   1   ROW     5   COL    14   RATE     636.667    
 BOUNDARY     75   LAYER   1   ROW     5   COL    15   RATE     636.667    
 BOUNDARY     76   LAYER   1   ROW     6   COL     1   RATE     636.667    
 BOUNDARY     77   LAYER   1   ROW     6   COL     2   RATE     636.667    
 BOUNDARY     78   LAYER   1   ROW     6   COL     3   RATE     636.667    
 BOUNDARY     79   LAYER   1   ROW     6   COL     4   RATE     636.667    
 BOUNDARY     80   LAYER   1   ROW     6   COL     5   RATE     636.667    
 BOUNDARY     81   LAYER   1   ROW     6   COL     6   RATE     636.667    
 BOUNDARY     82   LAYER   1   ROW     6   COL     7   RATE     636.667    
 BOUNDARY     83   LAYER   1   ROW     6   COL     8   RATE     636.667    
 BOUNDARY     84   LAYER   1   ROW     6   COL     9   RATE     636.667    
 BOUNDARY     85   LAYER   1   ROW     6   COL    10   RATE     636.667    
 BOUNDARY     86   LAYER   1   ROW     6   COL    11   RATE     636.667    
 BOUNDARY     87   LAYER   1   ROW     6   COL    12   RATE     636.667    
 BOUNDARY     88   LAYER   1   ROW     6   COL    13   RATE     636.667    
 BOUNDARY     89   LAYER   1   ROW     6   COL    14   RATE     636.667    
 BOUNDARY     90   LAYER   1   ROW     6   COL    15   RATE     636.667    
 BOUNDARY     91   LAYER   1   ROW     7   COL     1   RATE     636.667    
 BOUNDARY     92   LAYER   1   ROW     7   COL     2   RATE     636.667    
 BOUNDARY     93   LAYER   1   ROW     7   COL     3   RATE     636.667    
 BOUNDARY     94   LAYER   1   ROW     7   COL     4   RATE     636.667    
 BOUNDARY     95   LAYER   1   ROW     7   COL     5   RATE     636.667    
 BOUNDARY     96   LAYER   1   ROW     7   COL     6   RATE     636.667    
 BOUNDARY     97   LAYER   1   ROW     7   COL     7   RATE     636.667    
 BOUNDARY     98   LAYER   1   ROW     7   COL     8   RATE     636.667    
 BOUNDARY     99   LAYER   1   ROW     7   COL     9   RATE     636.667    
 BOUNDARY    100   LAYER   1   ROW     7   COL    10   RATE     636.667    
 BOUNDARY    101   LAYER   1   ROW     7   COL    11   RATE     636.667    
 BOUNDARY    102   LAYER   1   ROW     7   COL    12   RATE     636.667    
 BOUNDARY    103   LAYER   1   ROW     7   COL    13   RATE     636.667    
 BOUNDARY    104   LAYER   1   ROW     7   COL    14   RATE     636.667    
 BOUNDARY    105   LAYER   1   ROW     7   COL    15   RATE     636.667    
 BOUNDARY    106   LAYER   1   ROW     8   COL     1   RATE     636.667    
 BOUNDARY    107   LAYER   1   ROW     8   COL     2   RATE     636.667    
 BOUNDARY    108   LAYER   1   ROW     8   COL     3   RATE     636.667    
 BOUNDARY    109   LAYER   1   ROW     8   COL     4   RATE     636.667    
 BOUNDARY    110   LAYER   1   ROW     8   COL     5   RATE     636.667    
 BOUNDARY    111   LAYER   1   ROW     8   COL     6   RATE     636.667    
 BOUNDARY    112   LAYER   1   ROW     8   COL     7   RATE     636.667    
 BOUNDARY    113   LAYER   1   ROW     8   COL     8   RATE     636.667    
 BOUNDARY    114   LAYER   1   ROW     8   COL     9   RATE     636.667    
 BOUNDARY    115   LAYER   1   ROW     8   COL    10   RATE     636.667    
 BOUNDARY    116   LAYER   1   ROW     8   COL    11   RATE     636.667    
 BOUNDARY    117   LAYER   1   ROW     8   COL    12   RATE     636.667    
 BOUNDARY    118   LAYER   1   ROW     8   COL    13   RATE     636.667    
 BOUNDARY    119   LAYER   1   ROW     8   COL    14   RATE     636.667    
 BOUNDARY    120   LAYER   1   ROW     8   COL    15   RATE     636.667    
 BOUNDARY    121   LAYER   1   ROW     9   COL     1   RATE     636.667    
 BOUNDARY    122   LAYER   1   ROW     9   COL     2   RATE     636.667    
 BOUNDARY    123   LAYER   1   ROW     9   COL     3   RATE     636.667    
 BOUNDARY    124   LAYER   1   ROW     9   COL     4   RATE     636.667    
 BOUNDARY    125   LAYER   1   ROW     9   COL     5   RATE     636.667    
 BOUNDARY    126   LAYER   1   ROW     9   COL     6   RATE     636.667    
 BOUNDARY    127   LAYER   1   ROW     9   COL     7   RATE     636.667    
 BOUNDARY    128   LAYER   1   ROW     9   COL     8   RATE     636.667    
 BOUNDARY    129   LAYER   1   ROW     9   COL     9   RATE     636.667    
 BOUNDARY    130   LAYER   1   ROW     9   COL    10   RATE     636.667    
 BOUNDARY    131   LAYER   1   ROW     9   COL    11   RATE     636.667    
 BOUNDARY    132   LAYER   1   ROW     9   COL    12   RATE     636.667    
 BOUNDARY    133   LAYER   1   ROW     9   COL    13   RATE     636.667    
 BOUNDARY    134   LAYER   1   ROW     9   COL    14   RATE     636.667    
 BOUNDARY    135   LAYER   1   ROW     9   COL    15   RATE     636.667    
 BOUNDARY    136   LAYER   1   ROW    10   COL     1   RATE     636.667    
 BOUNDARY    137   LAYER   1   ROW    10   COL     2   RATE     636.667    
 BOUNDARY    138   LAYER   1   ROW    10   COL     3   RATE     636.667    
 BOUNDARY    139   LAYER   1   ROW    10   COL     4   RATE     636.667    
 BOUNDARY    140   LAYER   1   ROW    10   COL     5   RATE     636.667    
 BOUNDARY    141   LAYER   1   ROW    10   COL     6   RATE     636.667    
 BOUNDARY    142   LAYER   1   ROW    10   COL     7   RATE     636.667    
 BOUNDARY    143   LAYER   1   ROW    10   COL     8   RATE     636.667    
 BOUNDARY    144   LAYER   1   ROW    10   COL     9   RATE     636.667    
 BOUNDARY    145   LAYER   1   ROW    10   COL    10   RATE     636.667    
 BOUNDARY    146   LAYER   1   ROW    10   COL    11   RATE     636.667    
 BOUNDARY    147   LAYER   1   ROW    10   COL    12   RATE     636.667    
 BOUNDARY    148   LAYER   1   ROW    10   COL    13   RATE     636.667    
 BOUNDARY    149   LAYER   1   ROW    10   COL    14   RATE     636.667    
 BOUNDARY    150   LAYER   1   ROW    10   COL    15   RATE     636.667    
 UBDSV4 SAVING ET SEGS          ON UNIT   1016 AT TIME STEP      4, STRESS PERIOD      4

 ET SEGS            PERIOD  4   STEP  4
 BOUNDARY      1   LAYER   1   ROW     1   COL     1   RATE    -2.13396    
 BOUNDARY      2   LAYER   1   ROW     1   COL     2   RATE    -8.23902    
 BOUNDARY      3   LAYER   1   ROW     1   COL     3   RATE    -47.9764    
 BOUNDARY      4   LAYER   1   ROW     1   COL     4   RATE    -88.9583    
 BOUNDARY      5   LAYER   1   ROW     1   COL     5   RATE    -88.9583    
 BOUNDARY      6   LAYER   1   ROW     1   COL     6   RATE    -88.9583    
 BOUNDARY      7   LAYER   1   ROW     1   COL     7   RATE    -88.9583    
 BOUNDARY      8   LAYER   1   ROW     1   COL     8   RATE    -88.9583    
 BOUNDARY      9   LAYER   1   ROW     1   COL     9   RATE    -88.9583    
 BOUNDARY     10   LAYER   1   ROW     1   COL    10   RATE    -88.9583    
 BOUNDARY     11   LAYER   1   ROW     1   COL    11   RATE    -88.9583    
 BOUNDARY     12   LAYER   1   ROW     1   COL    12   RATE    -15.7852    
 BOUNDARY     13   LAYER   1   ROW     1   COL    13   RATE     0.00000    
 BOUNDARY     14   LAYER   1   ROW     1   COL    14   RATE     0.00000    
 BOUNDARY     15   LAYER   1   ROW     1   COL    15   RATE     0.00000    
 BOUNDARY     16   LAYER   1   ROW     2   COL     1   RATE     0.00000    
 BOUNDARY     17   LAYER   1   ROW     2   COL     2   RATE    -4.20948    
 BOUNDARY     18   LAYER   1   ROW     2   COL     3   RATE    -25.8445    
 BOUNDARY     19   LAYER   1   ROW     2   COL     4   RATE    -88.9583    
 BOUNDARY     20   LAYER   1   ROW     2   COL     5   RATE    -88.9583    
 BOUNDARY     21   LAYER   1   ROW     2   COL     6   RATE    -88.9583    
 BOUNDARY     22   LAYER   1   ROW     2   COL     7   RATE    -88.9583    
 BOUNDARY     23   LAYER   1   ROW     2   COL     8   RATE    -88.9583    
 BOUNDARY     24   LAYER   1   ROW     2   COL     9   RATE    -88.9583    
 BOUNDARY     25   LAYER   1   ROW     2   COL    10   RATE    -88.9583    
 BOUNDARY     26   LAYER   1   ROW     2   COL    11   RATE    -88.9583    
 BOUNDARY     27   LAYER   1   ROW     2   COL    12   RATE    -17.3353    
 BOUNDARY     28   LAYER   1   ROW     2   COL    13   RATE   -0.339370    
 BOUNDARY     29   LAYER   1   ROW     2   COL    14   RATE     0.00000    
 BOUNDARY     30   LAYER   1   ROW     2   COL    15   RATE     0.00000    
 BOUNDARY     31   LAYER   1   ROW     3   COL     1   RATE     0.00000    
 BOUNDARY     32   LAYER   1   ROW     3   COL     2   RATE     0.00000    
 BOUNDARY     33   LAYER   1   ROW     3   COL     3   RATE    -20.6210    
 BOUNDARY     34   LAYER   1   ROW     3   COL     4   RATE    -88.9583    
 BOUNDARY     35   LAYER   1   ROW     3   COL     5   RATE    -88.9583    
 BOUNDARY     36   LAYER   1   ROW     3   COL     6   RATE    -88.9583    
 BOUNDARY     37   LAYER   1   ROW     3   COL     7   RATE    -88.9583    
 BOUNDARY     38   LAYER   1   ROW     3   COL     8   RATE    -88.9583    
 BOUNDARY     39   LAYER   1   ROW     3   COL     9   RATE    -88.9583    
 BOUNDARY     40   LAYER   1   ROW     3   COL    10   RATE    -88.9583    
 BOUNDARY     41   LAYER   1   ROW     3   COL    11   RATE    -88.9583    
 BOUNDARY     42   LAYER   1   ROW     3   COL    12   RATE    -19.9500    
 BOUNDARY     43   LAYER   1   ROW     3   COL    13   RATE    -1.93356    
 BOUNDARY     44   LAYER   1   ROW     3   COL    14   RATE     0.00000    
 BOUNDARY     45   LAYER   1   ROW     3   COL    15   RATE     0.00000    
 BOUNDARY     46   LAYER   1   ROW     4   COL     1   RATE     0.00000    
 BOUNDARY     47   LAYER   1   ROW     4   COL     2   RATE    -2.86991    
 BOUNDARY     48   LAYER   1   ROW     4   COL     3   RATE    -24.0914    
 BOUNDARY     49   LAYER   1   ROW     4   COL     4   RATE    -88.9583    
 BOUNDARY     50   LAYER   1   ROW     4   COL     5   RATE    -88.9583    
 BOUNDARY     51   LAYER   1   ROW     4   COL     6   RATE    -88.9583    
 BOUNDARY     52   LAYER   1   ROW     4   COL     7   RATE    -88.9583    
 BOUNDARY     53   LAYER   1   ROW     4   COL     8   RATE    -88.9583    
 BOUNDARY     54   LAYER   1   ROW     4   COL     9   RATE    -88.9583    
 BOUNDARY     55   LAYER   1   ROW     4   COL    10   RATE    -88.9583    
 BOUNDARY     56   LAYER   1   ROW     4   COL    11   RATE    -88.9583    
 BOUNDARY     57   LAYER   1   ROW     4   COL    12   RATE    -22.4395    
 BOUNDARY     58   LAYER   1   ROW     4   COL    13   RATE    -3.22974    
 BOUNDARY     59   LAYER   1   ROW     4   COL    14   RATE     0.00000    
 BOUNDARY     60   LAYER   1   ROW     4   COL    15   RATE     0.00000    
 BOUNDARY     61   LAYER   1   ROW     5   COL     1   RATE     0.00000    
 BOUNDARY     62   LAYER   1   ROW     5   COL     2   RATE    -5.51886    
 BOUNDARY     63   LAYER   1   ROW     5   COL     3   RATE    -31.6845    
 BOUNDARY     64   LAYER   1   ROW     5   COL     4   RATE    -88.9583    
 BOUNDARY     65   LAYER   1   ROW     5   COL     5   RATE    -88.9583    
 BOUNDARY     66   LAYER   1   ROW     5   COL     6   RATE    -88.9583    
 BOUNDARY     67   LAYER   1   ROW     5   COL     7   RATE    -88.9583    
 BOUNDARY     68   LAYER   1   ROW     5   COL     8   RATE    -88.9583    
 BOUNDARY     69   LAYER   1   ROW     5   COL     9   RATE    -88.9583    
 BOUNDARY     70   LAYER   1   ROW     5   COL    10   RATE    -88.9583    
 BOUNDARY     71   LAYER   1   ROW     5   COL    11   RATE    -88.9583    
 BOUNDARY     72   LAYER   1   ROW     5   COL    12   RATE    -24.1563    
 BOUNDARY     73   LAYER   1   ROW     5   COL    13   RATE    -4.02526    
 BOUNDARY     74   LAYER   1   ROW     5   COL    14   RATE     0.00000    
 BOUNDARY     75   LAYER   1   ROW     5   COL    15   RATE     0.00000    
 BOUNDARY     76   LAYER   1   ROW     6   COL     1   RATE     0.00000    
 BOUNDARY     77   LAYER   1   ROW     6   COL     2   RATE    -4.24380    
 BOUNDARY     78   LAYER   1   ROW     6   COL     3   RATE    -35.1414    
 BOUNDARY     79   LAYER   1   ROW     6   COL     4   RATE    -88.9583    
 BOUNDARY     80   LAYER   1   ROW     6   COL     5   RATE    -88.9583    
 BOUNDARY     81   LAYER   1   ROW     6   COL     6   RATE    -88.9583    
 BOUNDARY     82   LAYER   1   ROW     6   COL     7   RATE    -88.9583    
 BOUNDARY     83   LAYER   1   ROW     6   COL     8   RATE    -88.9583    
 BOUNDARY     84   LAYER   1   ROW     6   COL     9   RATE    -88.9583    
 BOUNDARY     85   LAYER   1   ROW     6   COL    10   RATE    -88.9583    
 BOUNDARY     86   LAYER   1   ROW     6   COL    11   RATE    -88.9583    
 BOUNDARY     87   LAYER   1   ROW     6   COL    12   RATE    -24.7329    
 BOUNDARY     88   LAYER   1   ROW     6   COL    13   RATE    -3.98535    
 BOUNDARY     89   LAYER   1   ROW     6   COL    14   RATE     0.00000    
 BOUNDARY     90   LAYER   1   ROW     6   COL    15   RATE     0.00000    
 BOUNDARY     91   LAYER   1   ROW     7   COL     1   RATE     0.00000    
 BOUNDARY     92   LAYER   1   ROW     7   COL     2   RATE    -1.12273    
 BOUNDARY     93   LAYER   1   ROW     7   COL     3   RATE    -41.3516    
 BOUNDARY     94   LAYER   1   ROW     7   COL     4   RATE    -88.9583    
 BOUNDARY     95   LAYER   1   ROW     7   COL     5   RATE    -88.9583    
 BOUNDARY     96   LAYER   1   ROW     7   COL     6   RATE    -88.9583    
 BOUNDARY     97   LAYER   1   ROW     7   COL     7   RATE    -88.9583    
 BOUNDARY     98   LAYER   1   ROW     7   COL     8   RATE    -88.9583    
 BOUNDARY     99   LAYER   1   ROW     7   COL     9   RATE    -88.9583    
 BOUNDARY    100   LAYER   1   ROW     7   COL    10   RATE    -88.9583    
 BOUNDARY    101   LAYER   1   ROW     7   COL    11   RATE    -88.9583    
 BOUNDARY    102   LAYER   1   ROW     7   COL    12   RATE    -24.5957    
 BOUNDARY    103   LAYER   1   ROW     7   COL    13   RATE    -3.34143    
 BOUNDARY    104   LAYER   1   ROW     7   COL    14   RATE     0.00000    
 BOUNDARY    105   LAYER   1   ROW     7   COL    15   RATE     0.00000    
 BOUNDARY    106   LAYER   1   ROW     8   COL     1   RATE     0.00000    
 BOUNDARY    107   LAYER   1   ROW     8   COL     2   RATE    -10.8288    
 BOUNDARY    108   LAYER   1   ROW     8   COL     3   RATE    -88.9583    
 BOUNDARY    109   LAYER   1   ROW     8   COL     4   RATE    -88.9583    
 BOUNDARY    110   LAYER   1   ROW     8   COL     5   RATE    -88.9583    
 BOUNDARY    111   LAYER   1   ROW     8   COL     6   RATE    -88.9583    
 BOUNDARY    112   LAYER   1   ROW     8   COL     7   RATE    -88.9583    
 BOUNDARY    113   LAYER   1   ROW     8   COL     8   RATE    -88.9583    
 BOUNDARY    114   LAYER   1   ROW     8   COL     9   RATE    -88.9583    
 BOUNDARY    115   LAYER   1   ROW     8   COL    10   RATE    -88.9583    
 BOUNDARY    116   LAYER   1   ROW     8   COL    11   RATE    -88.9583    
 BOUNDARY    117   LAYER   1   ROW     8   COL    12   RATE    -24.9515    
 BOUNDARY    118   LAYER   1   ROW     8   COL    13   RATE    -3.35685    
 BOUNDARY    119   LAYER   1   ROW     8   COL    14   RATE     0.00000    
 BOUNDARY    120   LAYER   1   ROW     8   COL    15   RATE     0.00000    
 BOUNDARY    121   LAYER   1   ROW     9   COL     1   RATE    -17.5840    
 BOUNDARY    122   LAYER   1   ROW     9   COL     2   RATE    -58.4676    
 BOUNDARY    123   LAYER   1   ROW     9   COL     3   RATE    -88.9583    
 BOUNDARY    124   LAYER   1   ROW     9   COL     4   RATE    -88.9583    
 BOUNDARY    125   LAYER   1   ROW     9   COL     5   RATE    -88.9583    
 BOUNDARY    126   LAYER   1   ROW     9   COL     6   RATE    -88.9583    
 BOUNDARY    127   LAYER   1   ROW     9   COL     7   RATE    -88.9583    
 BOUNDARY    128   LAYER   1   ROW     9   COL     8   RATE    -88.9583    
 BOUNDARY    129   LAYER   1   ROW     9   COL     9   RATE    -88.9583    
 BOUNDARY    130   LAYER   1   ROW     9   COL    10   RATE    -88.9583    
 BOUNDARY    131   LAYER   1   ROW     9   COL    11   RATE    -88.9583    
 BOUNDARY    132   LAYER   1   ROW     9   COL    12   RATE    -25.9432    
 BOUNDARY    133   LAYER   1   ROW     9   COL    13   RATE    -4.10577    
 BOUNDARY    134   LAYER   1   ROW     9   COL    14   RATE     0.00000    
 BOUNDARY    135   LAYER   1   ROW     9   COL    15   RATE     0.00000    
 BOUNDARY    136   LAYER   1   ROW    10   COL     1   RATE    -65.8014    
 BOUNDARY    137   LAYER   1   ROW    10   COL     2   RATE    -88.9583    
 BOUNDARY    138   LAYER   1   ROW    10   COL     3   RATE    -88.9583    
 BOUNDARY    139   LAYER   1   ROW    10   COL     4   RATE    -88.9583    
 BOUNDARY    140   LAYER   1   ROW    10   COL     5   RATE    -88.9583    
 BOUNDARY    141   LAYER   1   ROW    10   COL     6   RATE    -88.9583    
 BOUNDARY    142   LAYER   1   ROW    10   COL     7   RATE    -88.9583    
 BOUNDARY    143   LAYER   1   ROW    10   COL     8   RATE    -88.9583    
 BOUNDARY    144   LAYER   1   ROW    10   COL     9   RATE    -88.9583    
 BOUNDARY    145   LAYER   1   ROW    10   COL    10   RATE    -88.9583    
 BOUNDARY    146   LAYER   1   ROW    10   COL    11   RATE    -88.9583    
 BOUNDARY    147   LAYER   1   ROW    10   COL    12   RATE    -26.6585    
 BOUNDARY    148   LAYER   1   ROW    10   COL    13   RATE    -4.58382    
 BOUNDARY    149   LAYER   1   ROW    10   COL    14   RATE     0.00000    
 BOUNDARY    150   LAYER   1   ROW    10   COL    15   RATE     0.00000    

 HEAD WILL BE SAVED ON UNIT 1017 AT END OF TIME STEP    4, STRESS PERIOD    4
WEL   no.    1 value from time series:   0.0000     for time:  64.00     to  65.00    
WEL   no.    2 value from time series:   0.0000     for time:  64.00     to  65.00    
RIV   no.    1 value from time series:   101.00     for time:  64.00     to  65.00    
RIV   no.    2 value from time series:   101.00     for time:  64.00     to  65.00    
RIV   no.    3 value from time series:   111.50     for time:  64.00     to  65.00    
RIV   no.    4 value from time series:   111.50     for time:  64.00     to  65.00    
RIV   no.    5 value from time series:   115.10     for time:  64.00     to  65.00    
RIV   no.    6 value from time series:   115.10     for time:  64.00     to  65.00    
RIV   no.    7 value from time series:   104.00     for time:  64.00     to  65.00    
RIV   no.    8 value from time series:   104.00     for time:  64.00     to  65.00    
RIV   no.    9 value from time series:   113.50     for time:  64.00     to  65.00    
RIV   no.   10 value from time series:   113.50     for time:  64.00     to  65.00    
WEL   no.    1 value from time series:   0.0000     for time:  64.00     to  65.00    
WEL   no.    2 value from time series:   0.0000     for time:  64.00     to  65.00    
RIV   no.    1 value from time series:   101.00     for time:  64.00     to  65.00    
RIV   no.    2 value from time series:   101.00     for time:  64.00     to  65.00    
RIV   no.    3 value from time series:   111.50     for time:  64.00     to  65.00    
RIV   no.    4 value from time series:   111.50     for time:  64.00     to  65.00    
RIV   no.    5 value from time series:   115.10     for time:  64.00     to  65.00    
RIV   no.    6 value from time series:   115.10     for time:  64.00     to  65.00    
RIV   no.    7 value from time series:   104.00     for time:  64.00     to  65.00    
RIV   no.    8 value from time series:   104.00     for time:  64.00     to  65.00    
RIV   no.    9 value from time series:   113.50     for time:  64.00     to  65.00    
RIV   no.   10 value from time series:   113.50     for time:  64.00     to  65.00    

 OUTPUT CONTROL FOR STRESS PERIOD    4   TIME STEP    5
    SAVE BUDGET
    SAVE HEAD
    SAVE HEAD FOR ALL LAYERS
 UBDSV1 SAVING          STORAGE ON UNIT   1016 AT TIME STEP      5, STRESS PERIOD      4
 UBDSV1 SAVING FLOW RIGHT FACE  ON UNIT   1016 AT TIME STEP      5, STRESS PERIOD      4
 UBDSV1 SAVING FLOW FRONT FACE  ON UNIT   1016 AT TIME STEP      5, STRESS PERIOD      4
 UBDSV1 SAVING FLOW LOWER FACE  ON UNIT   1016 AT TIME STEP      5, STRESS PERIOD      4
 UBDSV4 SAVING WELLS NEAR RIVER ON UNIT   1016 AT TIME STEP      5, STRESS PERIOD      4

 WELLS NEAR RIVER   PERIOD  4   STEP  5
 BOUNDARY      1   LAYER   2   ROW     8   COL     4   RATE     0.00000      WELL_2
 BOUNDARY      2   LAYER   2   ROW     3   COL     4   RATE     0.00000      WELL_1
 UBDSV4 SAVING RIVER            ON UNIT   1016 AT TIME STEP      5, STRESS PERIOD      4

 RIVER              PERIOD  4   STEP  5
 BOUNDARY      1   LAYER   1   ROW     1   COL    15   RATE    -4810.49    
 BOUNDARY      2   LAYER   1   ROW     2   COL    15   RATE    -5929.11      RIV2
 BOUNDARY      3   LAYER   1   ROW     3   COL    15   RATE    -2186.99      RIV3
 BOUNDARY      4   LAYER   1   ROW     4   COL    15   RATE    -3647.67    
 BOUNDARY      5   LAYER   1   ROW     5   COL    15   RATE    -2288.54    
 BOUNDARY      6   LAYER   1   ROW     6   COL    15   RATE    -1639.01    
 BOUNDARY      7   LAYER   1   ROW     7   COL    15   RATE    -6120.00      RIVX
 BOUNDARY      8   LAYER   1   ROW     8   COL    15   RATE    -5962.45      RIVX
 BOUNDARY      9   LAYER   1   ROW     9   COL    15   RATE    -2164.98      RIVX
 BOUNDARY     10   LAYER   1   ROW    10   COL    15   RATE    -3064.22    

 GHB LAKES          PERIOD  4   STEP  5
 BOUNDARY      1   LAYER   1   ROW     3   COL     1   RATE    -14559.8    
 BOUNDARY      2   LAYER   1   ROW     7   COL     1   RATE    -1911.09      GHB2_UPPER
 BOUNDARY      3   LAYER   1   ROW     7   COL     1   RATE    -13260.2      GHB2_LOWER
 UBDSV4 SAVING RECHARGE         ON UNIT   1016 AT TIME STEP      5, STRESS PERIOD      4

 RECHARGE           PERIOD  4   STEP  5
 BOUNDARY      1   LAYER   1   ROW     1   COL     1   RATE     640.000    
 BOUNDARY      2   LAYER   1   ROW     1   COL     2   RATE     640.000    
 BOUNDARY      3   LAYER   1   ROW     1   COL     3   RATE     640.000    
 BOUNDARY      4   LAYER   1   ROW     1   COL     4   RATE     640.000    
 BOUNDARY      5   LAYER   1   ROW     1   COL     5   RATE     640.000    
 BOUNDARY      6   LAYER   1   ROW     1   COL     6   RATE     640.000    
 BOUNDARY      7   LAYER   1   ROW     1   COL     7   RATE     640.000    
 BOUNDARY      8   LAYER   1   ROW     1   COL     8   RATE     640.000    
 BOUNDARY      9   LAYER   1   ROW     1   COL     9   RATE     640.000    
 BOUNDARY     10   LAYER   1   ROW     1   COL    10   RATE     640.000    
 BOUNDARY     11   LAYER   1   ROW     1   COL    11   RATE     640.000    
 BOUNDARY     12   LAYER   1   ROW     1   COL    12   RATE     640.000    
 BOUNDARY     13   LAYER   1   ROW     1   COL    13   RATE     640.000    
 BOUNDARY     14   LAYER   1   ROW     1   COL    14   RATE     640.000    
 BOUNDARY     15   LAYER   1   ROW     1   COL    15   RATE     640.000    
 BOUNDARY     16   LAYER   1   ROW     2   COL     1   RATE     640.000    
 BOUNDARY     17   LAYER   1   ROW     2   COL     2   RATE     640.000    
 BOUNDARY     18   LAYER   1   ROW     2   COL     3   RATE     640.000    
 BOUNDARY     19   LAYER   1   ROW     2   COL     4   RATE     640.000    
 BOUNDARY     20   LAYER   1   ROW     2   COL     5   RATE     640.000    
 BOUNDARY     21   LAYER   1   ROW     2   COL     6   RATE     640.000    
 BOUNDARY     22   LAYER   1   ROW     2   COL     7   RATE     640.000    
 BOUNDARY     23   LAYER   1   ROW     2   COL     8   RATE     640.000    
 BOUNDARY     24   LAYER   1   ROW     2   COL     9   RATE     640.000    
 BOUNDARY     25   LAYER   1   ROW     2   COL    10   RATE     640.000    
 BOUNDARY     26   LAYER   1   ROW     2   COL    11   RATE     640.000    
 BOUNDARY     27   LAYER   1   ROW     2   COL    12   RATE     640.000    
 BOUNDARY     28   LAYER   1   ROW     2   COL    13   RATE     640.000    
 BOUNDARY     29   LAYER   1   ROW     2   COL    14   RATE     640.000    
 BOUNDARY     30   LAYER   1   ROW     2   COL    15   RATE     640.000    
 BOUNDARY     31   LAYER   1   ROW     3   COL     1   RATE     640.000    
 BOUNDARY     32   LAYER   1   ROW     3   COL     2   RATE     640.000    
 BOUNDARY     33   LAYER   1   ROW     3   COL     3   RATE     640.000    
 BOUNDARY     34   LAYER   1   ROW     3   COL     4   RATE     640.000    
 BOUNDARY     35   LAYER   1   ROW     3   COL     5   RATE     640.000    
 BOUNDARY     36   LAYER   1   ROW     3   COL     6   RATE     640.000    
 BOUNDARY     37   LAYER   1   ROW     3   COL     7   RATE     640.000    
 BOUNDARY     38   LAYER   1   ROW     3   COL     8   RATE     640.000    
 BOUNDARY     39   LAYER   1   ROW     3   COL     9   RATE     640.000    
 BOUNDARY     40   LAYER   1   ROW     3   COL    10   RATE     640.000    
 BOUNDARY     41   LAYER   1   ROW     3   COL    11   RATE     640.000    
 BOUNDARY     42   LAYER   1   ROW     3   COL    12   RATE     640.000    
 BOUNDARY     43   LAYER   1   ROW     3   COL    13   RATE     640.000    
 BOUNDARY     44   LAYER   1   ROW     3   COL    14   RATE     640.000    
 BOUNDARY     45   LAYER   1   ROW     3   COL    15   RATE     640.000    
 BOUNDARY     46   LAYER   1   ROW     4   COL     1   RATE     640.000    
 BOUNDARY     47   LAYER   1   ROW     4   COL     2   RATE     640.000    
 BOUNDARY     48   LAYER   1   ROW     4   COL     3   RATE     640.000    
 BOUNDARY     49   LAYER   1   ROW     4   COL     4   RATE     640.000    
 BOUNDARY     50   LAYER   1   ROW     4   COL     5   RATE     640.000    
 BOUNDARY     51   LAYER   1   ROW     4   COL     6   RATE     640.000    
 BOUNDARY     52   LAYER   1   ROW     4   COL     7   RATE     640.000    
 BOUNDARY     53   LAYER   1   ROW     4   COL     8   RATE     640.000    
 BOUNDARY     54   LAYER   1   ROW     4   COL     9   RATE     640.000    
 BOUNDARY     55   LAYER   1   ROW     4   COL    10   RATE     640.000    
 BOUNDARY     56   LAYER   1   ROW     4   COL    11   RATE     640.000    
 BOUNDARY     57   LAYER   1   ROW     4   COL    12   RATE     640.000    
 BOUNDARY     58   LAYER   1   ROW     4   COL    13   RATE     640.000    
 BOUNDARY     59   LAYER   1   ROW     4   COL    14   RATE     640.000    
 BOUNDARY     60   LAYER   1   ROW     4   COL    15   RATE     640.000    
 BOUNDARY     61   LAYER   1   ROW     5   COL     1   RATE     640.000    
 BOUNDARY     62   LAYER   1   ROW     5   COL     2   RATE     640.000    
 BOUNDARY     63   LAYER   1   ROW     5   COL     3   RATE     640.000    
 BOUNDARY     64   LAYER   1   ROW     5   COL     4   RATE     640.000    
 BOUNDARY     65   LAYER   1   ROW     5   COL     5   RATE     640.000    
 BOUNDARY     66   LAYER   1   ROW     5   COL     6   RATE     640.000    
 BOUNDARY     67   LAYER   1   ROW     5   COL     7   RATE     640.000    
 BOUNDARY     68   LAYER   1   ROW     5   COL     8   RATE     640.000    
 BOUNDARY     69   LAYER   1   ROW     5   COL     9   RATE     640.000    
 BOUNDARY     70   LAYER   1   ROW     5   COL    10   RATE     640.000    
 BOUNDARY     71   LAYER   1   ROW     5   COL    11   RATE     640.000    
 BOUNDARY     72   LAYER   1   ROW     5   COL    12   RATE     640.000    
 BOUNDARY     73   LAYER   1   ROW     5   COL    13   RATE     640.000    
 BOUNDARY     74   LAYER   1   ROW     5   COL    14   RATE     640.000    
 BOUNDARY     75   LAYER   1   ROW     5   COL    15   RATE     640.000    
 BOUNDARY     76   LAYER   1   ROW     6   COL     1   RATE     640.000    
 BOUNDARY     77   LAYER   1   ROW     6   COL     2   RATE     640.000    
 BOUNDARY     78   LAYER   1   ROW     6   COL     3   RATE     640.000    
 BOUNDARY     79   LAYER   1   ROW     6   COL     4   RATE     640.000    
 BOUNDARY     80   LAYER   1   ROW     6   COL     5   RATE     640.000    
 BOUNDARY     81   LAYER   1   ROW     6   COL     6   RATE     640.000    
 BOUNDARY     82   LAYER   1   ROW     6   COL     7   RATE     640.000    
 BOUNDARY     83   LAYER   1   ROW     6   COL     8   RATE     640.000    
 BOUNDARY     84   LAYER   1   ROW     6   COL     9   RATE     640.000    
 BOUNDARY     85   LAYER   1   ROW     6   COL    10   RATE     640.000    
 BOUNDARY     86   LAYER   1   ROW     6   COL    11   RATE     640.000    
 BOUNDARY     87   LAYER   1   ROW     6   COL    12   RATE     640.000    
 BOUNDARY     88   LAYER   1   ROW     6   COL    13   RATE     640.000    
 BOUNDARY     89   LAYER   1   ROW     6   COL    14   RATE     640.000    
 BOUNDARY     90   LAYER   1   ROW     6   COL    15   RATE     640.000    
 BOUNDARY     91   LAYER   1   ROW     7   COL     1   RATE     640.000    
 BOUNDARY     92   LAYER   1   ROW     7   COL     2   RATE     640.000    
 BOUNDARY     93   LAYER   1   ROW     7   COL     3   RATE     640.000    
 BOUNDARY     94   LAYER   1   ROW     7   COL     4   RATE     640.000    
 BOUNDARY     95   LAYER   1   ROW     7   COL     5   RATE     640.000    
 BOUNDARY     96   LAYER   1   ROW     7   COL     6   RATE     640.000    
 BOUNDARY     97   LAYER   1   ROW     7   COL     7   RATE     640.000    
 BOUNDARY     98   LAYER   1   ROW     7   COL     8   RATE     640.000    
 BOUNDARY     99   LAYER   1   ROW     7   COL     9   RATE     640.000    
 BOUNDARY    100   LAYER   1   ROW     7   COL    10   RATE     640.000    
 BOUNDARY    101   LAYER   1   ROW     7   COL    11   RATE     640.000    
 BOUNDARY    102   LAYER   1   ROW     7   COL    12   RATE     640.000    
 BOUNDARY    103   LAYER   1   ROW     7   COL    13   RATE     640.000    
 BOUNDARY    104   LAYER   1   ROW     7   COL    14   RATE     640.000    
 BOUNDARY    105   LAYER   1   ROW     7   COL    15   RATE     640.000    
 BOUNDARY    106   LAYER   1   ROW     8   COL     1   RATE     640.000    
 BOUNDARY    107   LAYER   1   ROW     8   COL     2   RATE     640.000    
 BOUNDARY    108   LAYER   1   ROW     8   COL     3   RATE     640.000    
 BOUNDARY    109   LAYER   1   ROW     8   COL     4   RATE     640.000    
 BOUNDARY    110   LAYER   1   ROW     8   COL     5   RATE     640.000    
 BOUNDARY    111   LAYER   1   ROW     8   COL     6   RATE     640.000    
 BOUNDARY    112   LAYER   1   ROW     8   COL     7   RATE     640.000    
 BOUNDARY    113   LAYER   1   ROW     8   COL     8   RATE     640.000    
 BOUNDARY    114   LAYER   1   ROW     8   COL     9   RATE     640.000    
 BOUNDARY    115   LAYER   1   ROW     8   COL    10   RATE     640.000    
 BOUNDARY    116   LAYER   1   ROW     8   COL    11   RATE     640.000    
 BOUNDARY    117   LAYER   1   ROW     8   COL    12   RATE     640.000    
 BOUNDARY    118   LAYER   1   ROW     8   COL    13   RATE     640.000    
 BOUNDARY    119   LAYER   1   ROW     8   COL    14   RATE     640.000    
 BOUNDARY    120   LAYER   1   ROW     8   COL    15   RATE     640.000    
 BOUNDARY    121   LAYER   1   ROW     9   COL     1   RATE     640.000    
 BOUNDARY    122   LAYER   1   ROW     9   COL     2   RATE     640.000    
 BOUNDARY    123   LAYER   1   ROW     9   COL     3   RATE     640.000    
 BOUNDARY    124   LAYER   1   ROW     9   COL     4   RATE     640.000    
 BOUNDARY    125   LAYER   1   ROW     9   COL     5   RATE     640.000    
 BOUNDARY    126   LAYER   1   ROW     9   COL     6   RATE     640.000    
 BOUNDARY    127   LAYER   1   ROW     9   COL     7   RATE     640.000    
 BOUNDARY    128   LAYER   1   ROW     9   COL     8   RATE     640.000    
 BOUNDARY    129   LAYER   1   ROW     9   COL     9   RATE     640.000    
 BOUNDARY    130   LAYER   1   ROW     9   COL    10   RATE     640.000    
 BOUNDARY    131   LAYER   1   ROW     9   COL    11   RATE     640.000    
 BOUNDARY    132   LAYER   1   ROW     9   COL    12   RATE     640.000    
 BOUNDARY    133   LAYER   1   ROW     9   COL    13   RATE     640.000    
 BOUNDARY    134   LAYER   1   ROW     9   COL    14   RATE     640.000    
 BOUNDARY    135   LAYER   1   ROW     9   COL    15   RATE     640.000    
 BOUNDARY    136   LAYER   1   ROW    10   COL     1   RATE     640.000    
 BOUNDARY    137   LAYER   1   ROW    10   COL     2   RATE     640.000    
 BOUNDARY    138   LAYER   1   ROW    10   COL     3   RATE     640.000    
 BOUNDARY    139   LAYER   1   ROW    10   COL     4   RATE     640.000    
 BOUNDARY    140   LAYER   1   ROW    10   COL     5   RATE     640.000    
 BOUNDARY    141   LAYER   1   ROW    10   COL     6   RATE     640.000    
 BOUNDARY    142   LAYER   1   ROW    10   COL     7   RATE     640.000    
 BOUNDARY    143   LAYER   1   ROW    10   COL     8   RATE     640.000    
 BOUNDARY    144   LAYER   1   ROW    10   COL     9   RATE     640.000    
 BOUNDARY    145   LAYER   1   ROW    10   COL    10   RATE     640.000    
 BOUNDARY    146   LAYER   1   ROW    10   COL    11   RATE     640.000    
 BOUNDARY    147   LAYER   1   ROW    10   COL    12   RATE     640.000    
 BOUNDARY    148   LAYER   1   ROW    10   COL    13   RATE     640.000    
 BOUNDARY    149   LAYER   1   ROW    10   COL    14   RATE     640.000    
 BOUNDARY    150   LAYER   1   ROW    10   COL    15   RATE     640.000    
 UBDSV4 SAVING ET SEGS          ON UNIT   1016 AT TIME STEP      5, STRESS PERIOD      4

 ET SEGS            PERIOD  4   STEP  5
 BOUNDARY      1   LAYER   1   ROW     1   COL     1   RATE    -2.15363    
 BOUNDARY      2   LAYER   1   ROW     1   COL     2   RATE    -8.28737    
 BOUNDARY      3   LAYER   1   ROW     1   COL     3   RATE    -48.3710    
 BOUNDARY      4   LAYER   1   ROW     1   COL     4   RATE    -89.3750    
 BOUNDARY      5   LAYER   1   ROW     1   COL     5   RATE    -89.3750    
 BOUNDARY      6   LAYER   1   ROW     1   COL     6   RATE    -89.3750    
 BOUNDARY      7   LAYER   1   ROW     1   COL     7   RATE    -89.3750    
 BOUNDARY      8   LAYER   1   ROW     1   COL     8   RATE    -89.3750    
 BOUNDARY      9   LAYER   1   ROW     1   COL     9   RATE    -89.3750    
 BOUNDARY     10   LAYER   1   ROW     1   COL    10   RATE    -89.3750    
 BOUNDARY     11   LAYER   1   ROW     1   COL    11   RATE    -89.3750    
 BOUNDARY     12   LAYER   1   ROW     1   COL    12   RATE    -15.8937    
 BOUNDARY     13   LAYER   1   ROW     1   COL    13   RATE     0.00000    
 BOUNDARY     14   LAYER   1   ROW     1   COL    14   RATE     0.00000    
 BOUNDARY     15   LAYER   1   ROW     1   COL    15   RATE     0.00000    
 BOUNDARY     16   LAYER   1   ROW     2   COL     1   RATE     0.00000    
 BOUNDARY     17   LAYER   1   ROW     2   COL     2   RATE    -4.23877    
 BOUNDARY     18   LAYER   1   ROW     2   COL     3   RATE    -26.0056    
 BOUNDARY     19   LAYER   1   ROW     2   COL     4   RATE    -89.3750    
 BOUNDARY     20   LAYER   1   ROW     2   COL     5   RATE    -89.3750    
 BOUNDARY     21   LAYER   1   ROW     2   COL     6   RATE    -89.3750    
 BOUNDARY     22   LAYER   1   ROW     2   COL     7   RATE    -89.3750    
 BOUNDARY     23   LAYER   1   ROW     2   COL     8   RATE    -89.3750    
 BOUNDARY     24   LAYER   1   ROW     2   COL     9   RATE    -89.3750    
 BOUNDARY     25   LAYER   1   ROW     2   COL    10   RATE    -89.3750    
 BOUNDARY     26   LAYER   1   ROW     2   COL    11   RATE    -89.3750    
 BOUNDARY     27   LAYER   1   ROW     2   COL    12   RATE    -17.4511    
 BOUNDARY     28   LAYER   1   ROW     2   COL    13   RATE   -0.351185    
 BOUNDARY     29   LAYER   1   ROW     2   COL    14   RATE     0.00000    
 BOUNDARY     30   LAYER   1   ROW     2   COL    15   RATE     0.00000    
 BOUNDARY     31   LAYER   1   ROW     3   COL     1   RATE     0.00000    
 BOUNDARY     32   LAYER   1   ROW     3   COL     2   RATE     0.00000    
 BOUNDARY     33   LAYER   1   ROW     3   COL     3   RATE    -20.7505    
 BOUNDARY     34   LAYER   1   ROW     3   COL     4   RATE    -89.3750    
 BOUNDARY     35   LAYER   1   ROW     3   COL     5   RATE    -89.3750    
 BOUNDARY     36   LAYER   1   ROW     3   COL     6   RATE    -89.3750    
 BOUNDARY     37   LAYER   1   ROW     3   COL     7   RATE    -89.3750    
 BOUNDARY     38   LAYER   1   ROW     3   COL     8   RATE    -89.3750    
 BOUNDARY     39   LAYER   1   ROW     3   COL     9   RATE    -89.3750    
 BOUNDARY     40   LAYER   1   ROW     3   COL    10   RATE    -89.3750    
 BOUNDARY     41   LAYER   1   ROW     3   COL    11   RATE    -89.3750    
 BOUNDARY     42   LAYER   1   ROW     3   COL    12   RATE    -20.0781    
 BOUNDARY     43   LAYER   1   ROW     3   COL    13   RATE    -1.95297    
 BOUNDARY     44   LAYER   1   ROW     3   COL    14   RATE     0.00000    
 BOUNDARY     45   LAYER   1   ROW     3   COL    15   RATE     0.00000    
 BOUNDARY     46   LAYER   1   ROW     4   COL     1   RATE     0.00000    
 BOUNDARY     47   LAYER   1   ROW     4   COL     2   RATE    -2.89305    
 BOUNDARY     48   LAYER   1   ROW     4   COL     3   RATE    -24.2376    
 BOUNDARY     49   LAYER   1   ROW     4   COL     4   RATE    -89.3750    
 BOUNDARY     50   LAYER   1   ROW     4   COL     5   RATE    -89.3750    
 BOUNDARY     51   LAYER   1   ROW     4   COL     6   RATE    -89.3750    
 BOUNDARY     52   LAYER   1   ROW     4   COL     7   RATE    -89.3750    
 BOUNDARY     53   LAYER   1   ROW     4   COL     8   RATE    -89.3750    
 BOUNDARY     54   LAYER   1   ROW     4   COL     9   RATE    -89.3750    
 BOUNDARY     55   LAYER   1   ROW     4   COL    10   RATE    -89.3750    
 BOUNDARY     56   LAYER   1   ROW     4   COL    11   RATE    -89.3750    
 BOUNDARY     57   LAYER   1   ROW     4   COL    12   RATE    -22.5791    
 BOUNDARY     58   LAYER   1   ROW     4   COL    13   RATE    -3.25504    
 BOUNDARY     59   LAYER   1   ROW     4   COL    14   RATE     0.00000    
 BOUNDARY     60   LAYER   1   ROW     4   COL    15   RATE     0.00000    
 BOUNDARY     61   LAYER   1   ROW     5   COL     1   RATE     0.00000    
 BOUNDARY     62   LAYER   1   ROW     5   COL     2   RATE    -5.55453    
 BOUNDARY     63   LAYER   1   ROW     5   COL     3   RATE    -32.0068    
 BOUNDARY     64   LAYER   1   ROW     5   COL     4   RATE    -89.3750    
 BOUNDARY     65   LAYER   1   ROW     5   COL     5   RATE    -89.3750    
 BOUNDARY     66   LAYER   1   ROW     5   COL     6   RATE    -89.3750    
 BOUNDARY     67   LAYER   1   ROW     5   COL     7   RATE    -89.3750    
 BOUNDARY     68   LAYER   1   ROW     5   COL     8   RATE    -89.3750    
 BOUNDARY     69   LAYER   1   ROW     5   COL     9   RATE    -89.3750    
 BOUNDARY     70   LAYER   1   ROW     5   COL    10   RATE    -89.3750    
 BOUNDARY     71   LAYER   1   ROW     5   COL    11   RATE    -89.3750    
 BOUNDARY     72   LAYER   1   ROW     5   COL    12   RATE    -24.3035    
 BOUNDARY     73   LAYER   1   ROW     5   COL    13   RATE    -4.05392    
 BOUNDARY     74   LAYER   1   ROW     5   COL    14   RATE     0.00000    
 BOUNDARY     75   LAYER   1   ROW     5   COL    15   RATE     0.00000    
 BOUNDARY     76   LAYER   1   ROW     6   COL     1   RATE     0.00000    
 BOUNDARY     77   LAYER   1   ROW     6   COL     2   RATE    -4.27332    
 BOUNDARY     78   LAYER   1   ROW     6   COL     3   RATE    -35.4793    
 BOUNDARY     79   LAYER   1   ROW     6   COL     4   RATE    -89.3750    
 BOUNDARY     80   LAYER   1   ROW     6   COL     5   RATE    -89.3750    
 BOUNDARY     81   LAYER   1   ROW     6   COL     6   RATE    -89.3750    
 BOUNDARY     82   LAYER   1   ROW     6   COL     7   RATE    -89.3750    
 BOUNDARY     83   LAYER   1   ROW     6   COL     8   RATE    -89.3750    
 BOUNDARY     84   LAYER   1   ROW     6   COL     9   RATE    -89.3750    
 BOUNDARY     85   LAYER   1   ROW     6   COL    10   RATE    -89.3750    
 BOUNDARY     86   LAYER   1   ROW     6   COL    11   RATE    -89.3750    
 BOUNDARY     87   LAYER   1   ROW     6   COL    12   RATE    -24.8827    
 BOUNDARY     88   LAYER   1   ROW     6   COL    13   RATE    -4.01370    
 BOUNDARY     89   LAYER   1   ROW     6   COL    14   RATE     0.00000    
 BOUNDARY     90   LAYER   1   ROW     6   COL    15   RATE     0.00000    
 BOUNDARY     91   LAYER   1   ROW     7   COL     1   RATE     0.00000    
 BOUNDARY     92   LAYER   1   ROW     7   COL     2   RATE    -1.13713    
 BOUNDARY     93   LAYER   1   ROW     7   COL     3   RATE    -41.7181    
 BOUNDARY     94   LAYER   1   ROW     7   COL     4   RATE    -89.3750    
 BOUNDARY     95   LAYER   1   ROW     7   COL     5   RATE    -89.3750    
 BOUNDARY     96   LAYER   1   ROW     7   COL     6   RATE    -89.3750    
 BOUNDARY     97   LAYER   1   ROW     7   COL     7   RATE    -89.3750    
 BOUNDARY     98   LAYER   1   ROW     7   COL     8   RATE    -89.3750    
 BOUNDARY     99   LAYER   1   ROW     7   COL     9   RATE    -89.3750    
 BOUNDARY    100   LAYER   1   ROW     7   COL    10   RATE    -89.3750    
 BOUNDARY    101   LAYER   1   ROW     7   COL    11   RATE    -89.3750    
 BOUNDARY    102   LAYER   1   ROW     7   COL    12   RATE    -24.7451    
 BOUNDARY    103   LAYER   1   ROW     7   COL    13   RATE    -3.36697    
 BOUNDARY    104   LAYER   1   ROW     7   COL    14   RATE     0.00000    
 BOUNDARY    105   LAYER   1   ROW     7   COL    15   RATE     0.00000    
 BOUNDARY    106   LAYER   1   ROW     8   COL     1   RATE     0.00000    
 BOUNDARY    107   LAYER   1   ROW     8   COL     2   RATE    -10.9122    
 BOUNDARY    108   LAYER   1   ROW     8   COL     3   RATE    -89.3750    
 BOUNDARY    109   LAYER   1   ROW     8   COL     4   RATE    -89.3750    
 BOUNDARY    110   LAYER   1   ROW     8   COL     5   RATE    -89.3750    
 BOUNDARY    111   LAYER   1   ROW     8   COL     6   RATE    -89.3750    
 BOUNDARY    112   LAYER   1   ROW     8   COL     7   RATE    -89.3750    
 BOUNDARY    113   LAYER   1   ROW     8   COL     8   RATE    -89.3750    
 BOUNDARY    114   LAYER   1   ROW     8   COL     9   RATE    -89.3750    
 BOUNDARY    115   LAYER   1   ROW     8   COL    10   RATE    -89.3750    
 BOUNDARY    116   LAYER   1   ROW     8   COL    11   RATE    -89.3750    
 BOUNDARY    117   LAYER   1   ROW     8   COL    12   RATE    -25.1030    
 BOUNDARY    118   LAYER   1   ROW     8   COL    13   RATE    -3.38290    
 BOUNDARY    119   LAYER   1   ROW     8   COL    14   RATE     0.00000    
 BOUNDARY    120   LAYER   1   ROW     8   COL    15   RATE     0.00000    
 BOUNDARY    121   LAYER   1   ROW     9   COL     1   RATE    -17.6993    
 BOUNDARY    122   LAYER   1   ROW     9   COL     2   RATE    -58.9158    
 BOUNDARY    123   LAYER   1   ROW     9   COL     3   RATE    -89.3750    
 BOUNDARY    124   LAYER   1   ROW     9   COL     4   RATE    -89.3750    
 BOUNDARY    125   LAYER   1   ROW     9   COL     5   RATE    -89.3750    
 BOUNDARY    126   LAYER   1   ROW     9   COL     6   RATE    -89.3750    
 BOUNDARY    127   LAYER   1   ROW     9   COL     7   RATE    -89.3750    
 BOUNDARY    128   LAYER   1   ROW     9   COL     8   RATE    -89.3750    
 BOUNDARY    129   LAYER   1   ROW     9   COL     9   RATE    -89.3750    
 BOUNDARY    130   LAYER   1   ROW     9   COL    10   RATE    -89.3750    
 BOUNDARY    131   LAYER   1   ROW     9   COL    11   RATE    -89.3750    
 BOUNDARY    132   LAYER   1   ROW     9   COL    12   RATE    -26.1000    
 BOUNDARY    133   LAYER   1   ROW     9   COL    13   RATE    -4.13589    
 BOUNDARY    134   LAYER   1   ROW     9   COL    14   RATE     0.00000    
 BOUNDARY    135   LAYER   1   ROW     9   COL    15   RATE     0.00000    
 BOUNDARY    136   LAYER   1   ROW    10   COL     1   RATE    -66.2829    
 BOUNDARY    137   LAYER   1   ROW    10   COL     2   RATE    -89.3750    
 BOUNDARY    138   LAYER   1   ROW    10   COL     3   RATE    -89.3750    
 BOUNDARY    139   LAYER   1   ROW    10   COL     4   RATE    -89.3750    
 BOUNDARY    140   LAYER   1   ROW    10   COL     5   RATE    -89.3750    
 BOUNDARY    141   LAYER   1   ROW    10   COL     6   RATE    -89.3750    
 BOUNDARY    142   LAYER   1   ROW    10   COL     7   RATE    -89.3750    
 BOUNDARY    143   LAYER   1   ROW    10   COL     8   RATE    -89.3750    
 BOUNDARY    144   LAYER   1   ROW    10   COL     9   RATE    -89.3750    
 BOUNDARY    145   LAYER   1   ROW    10   COL    10   RATE    -89.3750    
 BOUNDARY    146   LAYER   1   ROW    10   COL    11   RATE    -89.3750    
 BOUNDARY    147   LAYER   1   ROW    10   COL    12   RATE    -26.8463    
 BOUNDARY    148   LAYER   1   ROW    10   COL    13   RATE    -4.61650    
 BOUNDARY    149   LAYER   1   ROW    10   COL    14   RATE     0.00000    
 BOUNDARY    150   LAYER   1   ROW    10   COL    15   RATE     0.00000    

 HEAD WILL BE SAVED ON UNIT 1017 AT END OF TIME STEP    5, STRESS PERIOD    4
WEL   no.    1 value from time series:   0.0000     for time:  65.00     to  66.00    
WEL   no.    2 value from time series:   0.0000     for time:  65.00     to  66.00    
RIV   no.    1 value from time series:   101.00     for time:  65.00     to  66.00    
RIV   no.    2 value from time series:   101.00     for time:  65.00     to  66.00    
RIV   no.    3 value from time series:   111.50     for time:  65.00     to  66.00    
RIV   no.    4 value from time series:   111.50     for time:  65.00     to  66.00    
RIV   no.    5 value from time series:   115.10     for time:  65.00     to  66.00    
RIV   no.    6 value from time series:   115.10     for time:  65.00     to  66.00    
RIV   no.    7 value from time series:   104.00     for time:  65.00     to  66.00    
RIV   no.    8 value from time series:   104.00     for time:  65.00     to  66.00    
RIV   no.    9 value from time series:   113.50     for time:  65.00     to  66.00    
RIV   no.   10 value from time series:   113.50     for time:  65.00     to  66.00    
WEL   no.    1 value from time series:   0.0000     for time:  65.00     to  66.00    
WEL   no.    2 value from time series:   0.0000     for time:  65.00     to  66.00    
RIV   no.    1 value from time series:   101.00     for time:  65.00     to  66.00    
RIV   no.    2 value from time series:   101.00     for time:  65.00     to  66.00    
RIV   no.    3 value from time series:   111.50     for time:  65.00     to  66.00    
RIV   no.    4 value from time series:   111.50     for time:  65.00     to  66.00    
RIV   no.    5 value from time series:   115.10     for time:  65.00     to  66.00    
RIV   no.    6 value from time series:   115.10     for time:  65.00     to  66.00    
RIV   no.    7 value from time series:   104.00     for time:  65.00     to  66.00    
RIV   no.    8 value from time series:   104.00     for time:  65.00     to  66.00    
RIV   no.    9 value from time series:   113.50     for time:  65.00     to  66.00    
RIV   no.   10 value from time series:   113.50     for time:  65.00     to  66.00    

 OUTPUT CONTROL FOR STRESS PERIOD    4   TIME STEP    6
    SAVE BUDGET
    SAVE HEAD
    SAVE HEAD FOR ALL LAYERS
 UBDSV1 SAVING          STORAGE ON UNIT   1016 AT TIME STEP      6, STRESS PERIOD      4
 UBDSV1 SAVING FLOW RIGHT FACE  ON UNIT   1016 AT TIME STEP      6, STRESS PERIOD      4
 UBDSV1 SAVING FLOW FRONT FACE  ON UNIT   1016 AT TIME STEP      6, STRESS PERIOD      4
 UBDSV1 SAVING FLOW LOWER FACE  ON UNIT   1016 AT TIME STEP      6, STRESS PERIOD      4
 UBDSV4 SAVING WELLS NEAR RIVER ON UNIT   1016 AT TIME STEP      6, STRESS PERIOD      4

 WELLS NEAR RIVER   PERIOD  4   STEP  6
 BOUNDARY      1   LAYER   2   ROW     8   COL     4   RATE     0.00000      WELL_2
 BOUNDARY      2   LAYER   2   ROW     3   COL     4   RATE     0.00000      WELL_1
 UBDSV4 SAVING RIVER            ON UNIT   1016 AT TIME STEP      6, STRESS PERIOD      4

 RIVER              PERIOD  4   STEP  6
 BOUNDARY      1   LAYER   1   ROW     1   COL    15   RATE    -4811.40    
 BOUNDARY      2   LAYER   1   ROW     2   COL    15   RATE    -5930.29      RIV2
 BOUNDARY      3   LAYER   1   ROW     3   COL    15   RATE    -2188.77      RIV3
 BOUNDARY      4   LAYER   1   ROW     4   COL    15   RATE    -3649.58    
 BOUNDARY      5   LAYER   1   ROW     5   COL    15   RATE    -2290.33    
 BOUNDARY      6   LAYER   1   ROW     6   COL    15   RATE    -1640.67    
 BOUNDARY      7   LAYER   1   ROW     7   COL    15   RATE    -6121.57      RIVX
 BOUNDARY      8   LAYER   1   ROW     8   COL    15   RATE    -5964.29      RIVX
 BOUNDARY      9   LAYER   1   ROW     9   COL    15   RATE    -2167.26      RIVX
 BOUNDARY     10   LAYER   1   ROW    10   COL    15   RATE    -3066.75    

 GHB LAKES          PERIOD  4   STEP  6
 BOUNDARY      1   LAYER   1   ROW     3   COL     1   RATE    -14564.0    
 BOUNDARY      2   LAYER   1   ROW     7   COL     1   RATE    -1914.55      GHB2_UPPER
 BOUNDARY      3   LAYER   1   ROW     7   COL     1   RATE    -13261.4      GHB2_LOWER
 UBDSV4 SAVING RECHARGE         ON UNIT   1016 AT TIME STEP      6, STRESS PERIOD      4

 RECHARGE           PERIOD  4   STEP  6
 BOUNDARY      1   LAYER   1   ROW     1   COL     1   RATE     643.333    
 BOUNDARY      2   LAYER   1   ROW     1   COL     2   RATE     643.333    
 BOUNDARY      3   LAYER   1   ROW     1   COL     3   RATE     643.333    
 BOUNDARY      4   LAYER   1   ROW     1   COL     4   RATE     643.333    
 BOUNDARY      5   LAYER   1   ROW     1   COL     5   RATE     643.333    
 BOUNDARY      6   LAYER   1   ROW     1   COL     6   RATE     643.333    
 BOUNDARY      7   LAYER   1   ROW     1   COL     7   RATE     643.333    
 BOUNDARY      8   LAYER   1   ROW     1   COL     8   RATE     643.333    
 BOUNDARY      9   LAYER   1   ROW     1   COL     9   RATE     643.333    
 BOUNDARY     10   LAYER   1   ROW     1   COL    10   RATE     643.333    
 BOUNDARY     11   LAYER   1   ROW     1   COL    11   RATE     643.333    
 BOUNDARY     12   LAYER   1   ROW     1   COL    12   RATE     643.333    
 BOUNDARY     13   LAYER   1   ROW     1   COL    13   RATE     643.333    
 BOUNDARY     14   LAYER   1   ROW     1   COL    14   RATE     643.333    
 BOUNDARY     15   LAYER   1   ROW     1   COL    15   RATE     643.333    
 BOUNDARY     16   LAYER   1   ROW     2   COL     1   RATE     643.333    
 BOUNDARY     17   LAYER   1   ROW     2   COL     2   RATE     643.333    
 BOUNDARY     18   LAYER   1   ROW     2   COL     3   RATE     643.333    
 BOUNDARY     19   LAYER   1   ROW     2   COL     4   RATE     643.333    
 BOUNDARY     20   LAYER   1   ROW     2   COL     5   RATE     643.333    
 BOUNDARY     21   LAYER   1   ROW     2   COL     6   RATE     643.333    
 BOUNDARY     22   LAYER   1   ROW     2   COL     7   RATE     643.333    
 BOUNDARY     23   LAYER   1   ROW     2   COL     8   RATE     643.333    
 BOUNDARY     24   LAYER   1   ROW     2   COL     9   RATE     643.333    
 BOUNDARY     25   LAYER   1   ROW     2   COL    10   RATE     643.333    
 BOUNDARY     26   LAYER   1   ROW     2   COL    11   RATE     643.333    
 BOUNDARY     27   LAYER   1   ROW     2   COL    12   RATE     643.333    
 BOUNDARY     28   LAYER   1   ROW     2   COL    13   RATE     643.333    
 BOUNDARY     29   LAYER   1   ROW     2   COL    14   RATE     643.333    
 BOUNDARY     30   LAYER   1   ROW     2   COL    15   RATE     643.333    
 BOUNDARY     31   LAYER   1   ROW     3   COL     1   RATE     643.333    
 BOUNDARY     32   LAYER   1   ROW     3   COL     2   RATE     643.333    
 BOUNDARY     33   LAYER   1   ROW     3   COL     3   RATE     643.333    
 BOUNDARY     34   LAYER   1   ROW     3   COL     4   RATE     643.333    
 BOUNDARY     35   LAYER   1   ROW     3   COL     5   RATE     643.333    
 BOUNDARY     36   LAYER   1   ROW     3   COL     6   RATE     643.333    
 BOUNDARY     37   LAYER   1   ROW     3   COL     7   RATE     643.333    
 BOUNDARY     38   LAYER   1   ROW     3   COL     8   RATE     643.333    
 BOUNDARY     39   LAYER   1   ROW     3   COL     9   RATE     643.333    
 BOUNDARY     40   LAYER   1   ROW     3   COL    10   RATE     643.333    
 BOUNDARY     41   LAYER   1   ROW     3   COL    11   RATE     643.333    
 BOUNDARY     42   LAYER   1   ROW     3   COL    12   RATE     643.333    
 BOUNDARY     43   LAYER   1   ROW     3   COL    13   RATE     643.333    
 BOUNDARY     44   LAYER   1   ROW     3   COL    14   RATE     643.333    
 BOUNDARY     45   LAYER   1   ROW     3   COL    15   RATE     643.333    
 BOUNDARY     46   LAYER   1   ROW     4   COL     1   RATE     643.333    
 BOUNDARY     47   LAYER   1   ROW     4   COL     2   RATE     643.333    
 BOUNDARY     48   LAYER   1   ROW     4   COL     3   RATE     643.333    
 BOUNDARY     49   LAYER   1   ROW     4   COL     4   RATE     643.333    
 BOUNDARY     50   LAYER   1   ROW     4   COL     5   RATE     643.333    
 BOUNDARY     51   LAYER   1   ROW     4   COL     6   RATE     643.333    
 BOUNDARY     52   LAYER   1   ROW     4   COL     7   RATE     643.333    
 BOUNDARY     53   LAYER   1   ROW     4   COL     8   RATE     643.333    
 BOUNDARY     54   LAYER   1   ROW     4   COL     9   RATE     643.333    
 BOUNDARY     55   LAYER   1   ROW     4   COL    10   RATE     643.333    
 BOUNDARY     56   LAYER   1   ROW     4   COL    11   RATE     643.333    
 BOUNDARY     57   LAYER   1   ROW     4   COL    12   RATE     643.333    
 BOUNDARY     58   LAYER   1   ROW     4   COL    13   RATE     643.333    
 BOUNDARY     59   LAYER   1   ROW     4   COL    14   RATE     643.333    
 BOUNDARY     60   LAYER   1   ROW     4   COL    15   RATE     643.333    
 BOUNDARY     61   LAYER   1   ROW     5   COL     1   RATE     643.333    
 BOUNDARY     62   LAYER   1   ROW     5   COL     2   RATE     643.333    
 BOUNDARY     63   LAYER   1   ROW     5   COL     3   RATE     643.333    
 BOUNDARY     64   LAYER   1   ROW     5   COL     4   RATE     643.333    
 BOUNDARY     65   LAYER   1   ROW     5   COL     5   RATE     643.333    
 BOUNDARY     66   LAYER   1   ROW     5   COL     6   RATE     643.333    
 BOUNDARY     67   LAYER   1   ROW     5   COL     7   RATE     643.333    
 BOUNDARY     68   LAYER   1   ROW     5   COL     8   RATE     643.333    
 BOUNDARY     69   LAYER   1   ROW     5   COL     9   RATE     643.333    
 BOUNDARY     70   LAYER   1   ROW     5   COL    10   RATE     643.333    
 BOUNDARY     71   LAYER   1   ROW     5   COL    11   RATE     643.333    
 BOUNDARY     72   LAYER   1   ROW     5   COL    12   RATE     643.333    
 BOUNDARY     73   LAYER   1   ROW     5   COL    13   RATE     643.333    
 BOUNDARY     74   LAYER   1   ROW     5   COL    14   RATE     643.333    
 BOUNDARY     75   LAYER   1   ROW     5   COL    15   RATE     643.333    
 BOUNDARY     76   LAYER   1   ROW     6   COL     1   RATE     643.333    
 BOUNDARY     77   LAYER   1   ROW     6   COL     2   RATE     643.333    
 BOUNDARY     78   LAYER   1   ROW     6   COL     3   RATE     643.333    
 BOUNDARY     79   LAYER   1   ROW     6   COL     4   RATE     643.333    
 BOUNDARY     80   LAYER   1   ROW     6   COL     5   RATE     643.333    
 BOUNDARY     81   LAYER   1   ROW     6   COL     6   RATE     643.333    
 BOUNDARY     82   LAYER   1   ROW     6   COL     7   RATE     643.333    
 BOUNDARY     83   LAYER   1   ROW     6   COL     8   RATE     643.333    
 BOUNDARY     84   LAYER   1   ROW     6   COL     9   RATE     643.333    
 BOUNDARY     85   LAYER   1   ROW     6   COL    10   RATE     643.333    
 BOUNDARY     86   LAYER   1   ROW     6   COL    11   RATE     643.333    
 BOUNDARY     87   LAYER   1   ROW     6   COL    12   RATE     643.333    
 BOUNDARY     88   LAYER   1   ROW     6   COL    13   RATE     643.333    
 BOUNDARY     89   LAYER   1   ROW     6   COL    14   RATE     643.333    
 BOUNDARY     90   LAYER   1   ROW     6   COL    15   RATE     643.333    
 BOUNDARY     91   LAYER   1   ROW     7   COL     1   RATE     643.333    
 BOUNDARY     92   LAYER   1   ROW     7   COL     2   RATE     643.333    
 BOUNDARY     93   LAYER   1   ROW     7   COL     3   RATE     643.333    
 BOUNDARY     94   LAYER   1   ROW     7   COL     4   RATE     643.333    
 BOUNDARY     95   LAYER   1   ROW     7   COL     5   RATE     643.333    
 BOUNDARY     96   LAYER   1   ROW     7   COL     6   RATE     643.333    
 BOUNDARY     97   LAYER   1   ROW     7   COL     7   RATE     643.333    
 BOUNDARY     98   LAYER   1   ROW     7   COL     8   RATE     643.333    
 BOUNDARY     99   LAYER   1   ROW     7   COL     9   RATE     643.333    
 BOUNDARY    100   LAYER   1   ROW     7   COL    10   RATE     643.333    
 BOUNDARY    101   LAYER   1   ROW     7   COL    11   RATE     643.333    
 BOUNDARY    102   LAYER   1   ROW     7   COL    12   RATE     643.333    
 BOUNDARY    103   LAYER   1   ROW     7   COL    13   RATE     643.333    
 BOUNDARY    104   LAYER   1   ROW     7   COL    14   RATE     643.333    
 BOUNDARY    105   LAYER   1   ROW     7   COL    15   RATE     643.333    
 BOUNDARY    106   LAYER   1   ROW     8   COL     1   RATE     643.333    
 BOUNDARY    107   LAYER   1   ROW     8   COL     2   RATE     643.333    
 BOUNDARY    108   LAYER   1   ROW     8   COL     3   RATE     643.333    
 BOUNDARY    109   LAYER   1   ROW     8   COL     4   RATE     643.333    
 BOUNDARY    110   LAYER   1   ROW     8   COL     5   RATE     643.333    
 BOUNDARY    111   LAYER   1   ROW     8   COL     6   RATE     643.333    
 BOUNDARY    112   LAYER   1   ROW     8   COL     7   RATE     643.333    
 BOUNDARY    113   LAYER   1   ROW     8   COL     8   RATE     643.333    
 BOUNDARY    114   LAYER   1   ROW     8   COL     9   RATE     643.333    
 BOUNDARY    115   LAYER   1   ROW     8   COL    10   RATE     643.333    
 BOUNDARY    116   LAYER   1   ROW     8   COL    11   RATE     643.333    
 BOUNDARY    117   LAYER   1   ROW     8   COL    12   RATE     643.333    
 BOUNDARY    118   LAYER   1   ROW     8   COL    13   RATE     643.333    
 BOUNDARY    119   LAYER   1   ROW     8   COL    14   RATE     643.333    
 BOUNDARY    120   LAYER   1   ROW     8   COL    15   RATE     643.333    
 BOUNDARY    121   LAYER   1   ROW     9   COL     1   RATE     643.333    
 BOUNDARY    122   LAYER   1   ROW     9   COL     2   RATE     643.333    
 BOUNDARY    123   LAYER   1   ROW     9   COL     3   RATE     643.333    
 BOUNDARY    124   LAYER   1   ROW     9   COL     4   RATE     643.333    
 BOUNDARY    125   LAYER   1   ROW     9   COL     5   RATE     643.333    
 BOUNDARY    126   LAYER   1   ROW     9   COL     6   RATE     643.333    
 BOUNDARY    127   LAYER   1   ROW     9   COL     7   RATE     643.333    
 BOUNDARY    128   LAYER   1   ROW     9   COL     8   RATE     643.333    
 BOUNDARY    129   LAYER   1   ROW     9   COL     9   RATE     643.333    
 BOUNDARY    130   LAYER   1   ROW     9   COL    10   RATE     643.333    
 BOUNDARY    131   LAYER   1   ROW     9   COL    11   RATE     643.333    
 BOUNDARY    132   LAYER   1   ROW     9   COL    12   RATE     643.333    
 BOUNDARY    133   LAYER   1   ROW     9   COL    13   RATE     643.333    
 BOUNDARY    134   LAYER   1   ROW     9   COL    14   RATE     643.333    
 BOUNDARY    135   LAYER   1   ROW     9   COL    15   RATE     643.333    
 BOUNDARY    136   LAYER   1   ROW    10   COL     1   RATE     643.333    
 BOUNDARY    137   LAYER   1   ROW    10   COL     2   RATE     643.333    
 BOUNDARY    138   LAYER   1   ROW    10   COL     3   RATE     643.333    
 BOUNDARY    139   LAYER   1   ROW    10   COL     4   RATE     643.333    
 BOUNDARY    140   LAYER   1   ROW    10   COL     5   RATE     643.333    
 BOUNDARY    141   LAYER   1   ROW    10   COL     6   RATE     643.333    
 BOUNDARY    142   LAYER   1   ROW    10   COL     7   RATE     643.333    
 BOUNDARY    143   LAYER   1   ROW    10   COL     8   RATE     643.333    
 BOUNDARY    144   LAYER   1   ROW    10   COL     9   RATE     643.333    
 BOUNDARY    145   LAYER   1   ROW    10   COL    10   RATE     643.333    
 BOUNDARY    146   LAYER   1   ROW    10   COL    11   RATE     643.333    
 BOUNDARY    147   LAYER   1   ROW    10   COL    12   RATE     643.333    
 BOUNDARY    148   LAYER   1   ROW    10   COL    13   RATE     643.333    
 BOUNDARY    149   LAYER   1   ROW    10   COL    14   RATE     643.333    
 BOUNDARY    150   LAYER   1   ROW    10   COL    15   RATE     643.333    
 UBDSV4 SAVING ET SEGS          ON UNIT   1016 AT TIME STEP      6, STRESS PERIOD      4

 ET SEGS            PERIOD  4   STEP  6
 BOUNDARY      1   LAYER   1   ROW     1   COL     1   RATE    -2.17361    
 BOUNDARY      2   LAYER   1   ROW     1   COL     2   RATE    -8.33603    
 BOUNDARY      3   LAYER   1   ROW     1   COL     3   RATE    -48.7715    
 BOUNDARY      4   LAYER   1   ROW     1   COL     4   RATE    -89.7917    
 BOUNDARY      5   LAYER   1   ROW     1   COL     5   RATE    -89.7917    
 BOUNDARY      6   LAYER   1   ROW     1   COL     6   RATE    -89.7917    
 BOUNDARY      7   LAYER   1   ROW     1   COL     7   RATE    -89.7917    
 BOUNDARY      8   LAYER   1   ROW     1   COL     8   RATE    -89.7917    
 BOUNDARY      9   LAYER   1   ROW     1   COL     9   RATE    -89.7917    
 BOUNDARY     10   LAYER   1   ROW     1   COL    10   RATE    -89.7917    
 BOUNDARY     11   LAYER   1   ROW     1   COL    11   RATE    -89.7917    
 BOUNDARY     12   LAYER   1   ROW     1   COL    12   RATE    -16.0033    
 BOUNDARY     13   LAYER   1   ROW     1   COL    13   RATE     0.00000    
 BOUNDARY     14   LAYER   1   ROW     1   COL    14   RATE     0.00000    
 BOUNDARY     15   LAYER   1   ROW     1   COL    15   RATE     0.00000    
 BOUNDARY     16   LAYER   1   ROW     2   COL     1   RATE     0.00000    
 BOUNDARY     17   LAYER   1   ROW     2   COL     2   RATE    -4.26840    
 BOUNDARY     18   LAYER   1   ROW     2   COL     3   RATE    -26.1673    
 BOUNDARY     19   LAYER   1   ROW     2   COL     4   RATE    -89.7917    
 BOUNDARY     20   LAYER   1   ROW     2   COL     5   RATE    -89.7917    
 BOUNDARY     21   LAYER   1   ROW     2   COL     6   RATE    -89.7917    
 BOUNDARY     22   LAYER   1   ROW     2   COL     7   RATE    -89.7917    
 BOUNDARY     23   LAYER   1   ROW     2   COL     8   RATE    -89.7917    
 BOUNDARY     24   LAYER   1   ROW     2   COL     9   RATE    -89.7917    
 BOUNDARY     25   LAYER   1   ROW     2   COL    10   RATE    -89.7917    
 BOUNDARY     26   LAYER   1   ROW     2   COL    11   RATE    -89.7917    
 BOUNDARY     27   LAYER   1   ROW     2   COL    12   RATE    -17.5680    
 BOUNDARY     28   LAYER   1   ROW     2   COL    13   RATE   -0.363310    
 BOUNDARY     29   LAYER   1   ROW     2   COL    14   RATE     0.00000    
 BOUNDARY     30   LAYER   1   ROW     2   COL    15   RATE     0.00000    
 BOUNDARY     31   LAYER   1   ROW     3   COL     1   RATE     0.00000    
 BOUNDARY     32   LAYER   1   ROW     3   COL     2   RATE     0.00000    
 BOUNDARY     33   LAYER   1   ROW     3   COL     3   RATE    -20.8811    
 BOUNDARY     34   LAYER   1   ROW     3   COL     4   RATE    -89.7917    
 BOUNDARY     35   LAYER   1   ROW     3   COL     5   RATE    -89.7917    
 BOUNDARY     36   LAYER   1   ROW     3   COL     6   RATE    -89.7917    
 BOUNDARY     37   LAYER   1   ROW     3   COL     7   RATE    -89.7917    
 BOUNDARY     38   LAYER   1   ROW     3   COL     8   RATE    -89.7917    
 BOUNDARY     39   LAYER   1   ROW     3   COL     9   RATE    -89.7917    
 BOUNDARY     40   LAYER   1   ROW     3   COL    10   RATE    -89.7917    
 BOUNDARY     41   LAYER   1   ROW     3   COL    11   RATE    -89.7917    
 BOUNDARY     42   LAYER   1   ROW     3   COL    12   RATE    -20.2073    
 BOUNDARY     43   LAYER   1   ROW     3   COL    13   RATE    -1.97268    
 BOUNDARY     44   LAYER   1   ROW     3   COL    14   RATE     0.00000    
 BOUNDARY     45   LAYER   1   ROW     3   COL    15   RATE     0.00000    
 BOUNDARY     46   LAYER   1   ROW     4   COL     1   RATE     0.00000    
 BOUNDARY     47   LAYER   1   ROW     4   COL     2   RATE    -2.91650    
 BOUNDARY     48   LAYER   1   ROW     4   COL     3   RATE    -24.3848    
 BOUNDARY     49   LAYER   1   ROW     4   COL     4   RATE    -89.7917    
 BOUNDARY     50   LAYER   1   ROW     4   COL     5   RATE    -89.7917    
 BOUNDARY     51   LAYER   1   ROW     4   COL     6   RATE    -89.7917    
 BOUNDARY     52   LAYER   1   ROW     4   COL     7   RATE    -89.7917    
 BOUNDARY     53   LAYER   1   ROW     4   COL     8   RATE    -89.7917    
 BOUNDARY     54   LAYER   1   ROW     4   COL     9   RATE    -89.7917    
 BOUNDARY     55   LAYER   1   ROW     4   COL    10   RATE    -89.7917    
 BOUNDARY     56   LAYER   1   ROW     4   COL    11   RATE    -89.7917    
 BOUNDARY     57   LAYER   1   ROW     4   COL    12   RATE    -22.7197    
 BOUNDARY     58   LAYER   1   ROW     4   COL    13   RATE    -3.28065    
 BOUNDARY     59   LAYER   1   ROW     4   COL    14   RATE     0.00000    
 BOUNDARY     60   LAYER   1   ROW     4   COL    15   RATE     0.00000    
 BOUNDARY     61   LAYER   1   ROW     5   COL     1   RATE     0.00000    
 BOUNDARY     62   LAYER   1   ROW     5   COL     2   RATE    -5.59052    
 BOUNDARY     63   LAYER   1   ROW     5   COL     3   RATE    -32.3346    
 BOUNDARY     64   LAYER   1   ROW     5   COL     4   RATE    -89.7917    
 BOUNDARY     65   LAYER   1   ROW     5   COL     5   RATE    -89.7917    
 BOUNDARY     66   LAYER   1   ROW     5   COL     6   RATE    -89.7917    
 BOUNDARY     67   LAYER   1   ROW     5   COL     7   RATE    -89.7917    
 BOUNDARY     68   LAYER   1   ROW     5   COL     8   RATE    -89.7917    
 BOUNDARY     69   LAYER   1   ROW     5   COL     9   RATE    -89.7917    
 BOUNDARY     70   LAYER   1   ROW     5   COL    10   RATE    -89.7917    
 BOUNDARY     71   LAYER   1   ROW     5   COL    11   RATE    -89.7917    
 BOUNDARY     72   LAYER   1   ROW     5   COL    12   RATE    -24.4518    
 BOUNDARY     73   LAYER   1   ROW     5   COL    13   RATE    -4.08290    
 BOUNDARY     74   LAYER   1   ROW     5   COL    14   RATE     0.00000    
 BOUNDARY     75   LAYER   1   ROW     5   COL    15   RATE     0.00000    
 BOUNDARY     76   LAYER   1   ROW     6   COL     1   RATE     0.00000    
 BOUNDARY     77   LAYER   1   ROW     6   COL     2   RATE    -4.30315    
 BOUNDARY     78   LAYER   1   ROW     6   COL     3   RATE    -35.8225    
 BOUNDARY     79   LAYER   1   ROW     6   COL     4   RATE    -89.7917    
 BOUNDARY     80   LAYER   1   ROW     6   COL     5   RATE    -89.7917    
 BOUNDARY     81   LAYER   1   ROW     6   COL     6   RATE    -89.7917    
 BOUNDARY     82   LAYER   1   ROW     6   COL     7   RATE    -89.7917    
 BOUNDARY     83   LAYER   1   ROW     6   COL     8   RATE    -89.7917    
 BOUNDARY     84   LAYER   1   ROW     6   COL     9   RATE    -89.7917    
 BOUNDARY     85   LAYER   1   ROW     6   COL    10   RATE    -89.7917    
 BOUNDARY     86   LAYER   1   ROW     6   COL    11   RATE    -89.7917    
 BOUNDARY     87   LAYER   1   ROW     6   COL    12   RATE    -25.0336    
 BOUNDARY     88   LAYER   1   ROW     6   COL    13   RATE    -4.04236    
 BOUNDARY     89   LAYER   1   ROW     6   COL    14   RATE     0.00000    
 BOUNDARY     90   LAYER   1   ROW     6   COL    15   RATE     0.00000    
 BOUNDARY     91   LAYER   1   ROW     7   COL     1   RATE     0.00000    
 BOUNDARY     92   LAYER   1   ROW     7   COL     2   RATE    -1.15184    
 BOUNDARY     93   LAYER   1   ROW     7   COL     3   RATE    -42.0899    
 BOUNDARY     94   LAYER   1   ROW     7   COL     4   RATE    -89.7917    
 BOUNDARY     95   LAYER   1   ROW     7   COL     5   RATE    -89.7917    
 BOUNDARY     96   LAYER   1   ROW     7   COL     6   RATE    -89.7917    
 BOUNDARY     97   LAYER   1   ROW     7   COL     7   RATE    -89.7917    
 BOUNDARY     98   LAYER   1   ROW     7   COL     8   RATE    -89.7917    
 BOUNDARY     99   LAYER   1   ROW     7   COL     9   RATE    -89.7917    
 BOUNDARY    100   LAYER   1   ROW     7   COL    10   RATE    -89.7917    
 BOUNDARY    101   LAYER   1   ROW     7   COL    11   RATE    -89.7917    
 BOUNDARY    102   LAYER   1   ROW     7   COL    12   RATE    -24.8956    
 BOUNDARY    103   LAYER   1   ROW     7   COL    13   RATE    -3.39281    
 BOUNDARY    104   LAYER   1   ROW     7   COL    14   RATE     0.00000    
 BOUNDARY    105   LAYER   1   ROW     7   COL    15   RATE     0.00000    
 BOUNDARY    106   LAYER   1   ROW     8   COL     1   RATE     0.00000    
 BOUNDARY    107   LAYER   1   ROW     8   COL     2   RATE    -10.9967    
 BOUNDARY    108   LAYER   1   ROW     8   COL     3   RATE    -89.7917    
 BOUNDARY    109   LAYER   1   ROW     8   COL     4   RATE    -89.7917    
 BOUNDARY    110   LAYER   1   ROW     8   COL     5   RATE    -89.7917    
 BOUNDARY    111   LAYER   1   ROW     8   COL     6   RATE    -89.7917    
 BOUNDARY    112   LAYER   1   ROW     8   COL     7   RATE    -89.7917    
 BOUNDARY    113   LAYER   1   ROW     8   COL     8   RATE    -89.7917    
 BOUNDARY    114   LAYER   1   ROW     8   COL     9   RATE    -89.7917    
 BOUNDARY    115   LAYER   1   ROW     8   COL    10   RATE    -89.7917    
 BOUNDARY    116   LAYER   1   ROW     8   COL    11   RATE    -89.7917    
 BOUNDARY    117   LAYER   1   ROW     8   COL    12   RATE    -25.2557    
 BOUNDARY    118   LAYER   1   ROW     8   COL    13   RATE    -3.40926    
 BOUNDARY    119   LAYER   1   ROW     8   COL    14   RATE     0.00000    
 BOUNDARY    120   LAYER   1   ROW     8   COL    15   RATE     0.00000    
 BOUNDARY    121   LAYER   1   ROW     9   COL     1   RATE    -17.8157    
 BOUNDARY    122   LAYER   1   ROW     9   COL     2   RATE    -59.3693    
 BOUNDARY    123   LAYER   1   ROW     9   COL     3   RATE    -89.7917    
 BOUNDARY    124   LAYER   1   ROW     9   COL     4   RATE    -89.7917    
 BOUNDARY    125   LAYER   1   ROW     9   COL     5   RATE    -89.7917    
 BOUNDARY    126   LAYER   1   ROW     9   COL     6   RATE    -89.7917    
 BOUNDARY    127   LAYER   1   ROW     9   COL     7   RATE    -89.7917    
 BOUNDARY    128   LAYER   1   ROW     9   COL     8   RATE    -89.7917    
 BOUNDARY    129   LAYER   1   ROW     9   COL     9   RATE    -89.7917    
 BOUNDARY    130   LAYER   1   ROW     9   COL    10   RATE    -89.7917    
 BOUNDARY    131   LAYER   1   ROW     9   COL    11   RATE    -89.7917    
 BOUNDARY    132   LAYER   1   ROW     9   COL    12   RATE    -26.2579    
 BOUNDARY    133   LAYER   1   ROW     9   COL    13   RATE    -4.16633    
 BOUNDARY    134   LAYER   1   ROW     9   COL    14   RATE     0.00000    
 BOUNDARY    135   LAYER   1   ROW     9   COL    15   RATE     0.00000    
 BOUNDARY    136   LAYER   1   ROW    10   COL     1   RATE    -66.7697    
 BOUNDARY    137   LAYER   1   ROW    10   COL     2   RATE    -89.7917    
 BOUNDARY    138   LAYER   1   ROW    10   COL     3   RATE    -89.7917    
 BOUNDARY    139   LAYER   1   ROW    10   COL     4   RATE    -89.7917    
 BOUNDARY    140   LAYER   1   ROW    10   COL     5   RATE    -89.7917    
 BOUNDARY    141   LAYER   1   ROW    10   COL     6   RATE    -89.7917    
 BOUNDARY    142   LAYER   1   ROW    10   COL     7   RATE    -89.7917    
 BOUNDARY    143   LAYER   1   ROW    10   COL     8   RATE    -89.7917    
 BOUNDARY    144   LAYER   1   ROW    10   COL     9   RATE    -89.7917    
 BOUNDARY    145   LAYER   1   ROW    10   COL    10   RATE    -89.7917    
 BOUNDARY    146   LAYER   1   ROW    10   COL    11   RATE    -89.7917    
 BOUNDARY    147   LAYER   1   ROW    10   COL    12   RATE    -27.1630    
 BOUNDARY    148   LAYER   1   ROW    10   COL    13   RATE    -4.64949    
 BOUNDARY    149   LAYER   1   ROW    10   COL    14   RATE     0.00000    
 BOUNDARY    150   LAYER   1   ROW    10   COL    15   RATE     0.00000    

 HEAD WILL BE SAVED ON UNIT 1017 AT END OF TIME STEP    6, STRESS PERIOD    4
WEL   no.    1 value from time series:   0.0000     for time:  66.00     to  67.00    
WEL   no.    2 value from time series:   0.0000     for time:  66.00     to  67.00    
RIV   no.    1 value from time series:   101.00     for time:  66.00     to  67.00    
RIV   no.    2 value from time series:   101.00     for time:  66.00     to  67.00    
RIV   no.    3 value from time series:   111.50     for time:  66.00     to  67.00    
RIV   no.    4 value from time series:   111.50     for time:  66.00     to  67.00    
RIV   no.    5 value from time series:   115.10     for time:  66.00     to  67.00    
RIV   no.    6 value from time series:   115.10     for time:  66.00     to  67.00    
RIV   no.    7 value from time series:   104.00     for time:  66.00     to  67.00    
RIV   no.    8 value from time series:   104.00     for time:  66.00     to  67.00    
RIV   no.    9 value from time series:   113.50     for time:  66.00     to  67.00    
RIV   no.   10 value from time series:   113.50     for time:  66.00     to  67.00    
WEL   no.    1 value from time series:   0.0000     for time:  66.00     to  67.00    
WEL   no.    2 value from time series:   0.0000     for time:  66.00     to  67.00    
RIV   no.    1 value from time series:   101.00     for time:  66.00     to  67.00    
RIV   no.    2 value from time series:   101.00     for time:  66.00     to  67.00    
RIV   no.    3 value from time series:   111.50     for time:  66.00     to  67.00    
RIV   no.    4 value from time series:   111.50     for time:  66.00     to  67.00    
RIV   no.    5 value from time series:   115.10     for time:  66.00     to  67.00    
RIV   no.    6 value from time series:   115.10     for time:  66.00     to  67.00    
RIV   no.    7 value from time series:   104.00     for time:  66.00     to  67.00    
RIV   no.    8 value from time series:   104.00     for time:  66.00     to  67.00    
RIV   no.    9 value from time series:   113.50     for time:  66.00     to  67.00    
RIV   no.   10 value from time series:   113.50     for time:  66.00     to  67.00    

 OUTPUT CONTROL FOR STRESS PERIOD    4   TIME STEP    7
    SAVE BUDGET
    SAVE HEAD
    SAVE HEAD FOR ALL LAYERS
 UBDSV1 SAVING          STORAGE ON UNIT   1016 AT TIME STEP      7, STRESS PERIOD      4
 UBDSV1 SAVING FLOW RIGHT FACE  ON UNIT   1016 AT TIME STEP      7, STRESS PERIOD      4
 UBDSV1 SAVING FLOW FRONT FACE  ON UNIT   1016 AT TIME STEP      7, STRESS PERIOD      4
 UBDSV1 SAVING FLOW LOWER FACE  ON UNIT   1016 AT TIME STEP      7, STRESS PERIOD      4
 UBDSV4 SAVING WELLS NEAR RIVER ON UNIT   1016 AT TIME STEP      7, STRESS PERIOD      4

 WELLS NEAR RIVER   PERIOD  4   STEP  7
 BOUNDARY      1   LAYER   2   ROW     8   COL     4   RATE     0.00000      WELL_2
 BOUNDARY      2   LAYER   2   ROW     3   COL     4   RATE     0.00000      WELL_1
 UBDSV4 SAVING RIVER            ON UNIT   1016 AT TIME STEP      7, STRESS PERIOD      4

 RIVER              PERIOD  4   STEP  7
 BOUNDARY      1   LAYER   1   ROW     1   COL    15   RATE    -4812.44    
 BOUNDARY      2   LAYER   1   ROW     2   COL    15   RATE    -5931.61      RIV2
 BOUNDARY      3   LAYER   1   ROW     3   COL    15   RATE    -2190.65      RIV3
 BOUNDARY      4   LAYER   1   ROW     4   COL    15   RATE    -3651.58    
 BOUNDARY      5   LAYER   1   ROW     5   COL    15   RATE    -2292.22    
 BOUNDARY      6   LAYER   1   ROW     6   COL    15   RATE    -1642.43    
 BOUNDARY      7   LAYER   1   ROW     7   COL    15   RATE    -6123.25      RIVX
 BOUNDARY      8   LAYER   1   ROW     8   COL    15   RATE    -5966.22      RIVX
 BOUNDARY      9   LAYER   1   ROW     9   COL    15   RATE    -2169.63      RIVX
 BOUNDARY     10   LAYER   1   ROW    10   COL    15   RATE    -3069.37    

 GHB LAKES          PERIOD  4   STEP  7
 BOUNDARY      1   LAYER   1   ROW     3   COL     1   RATE    -14568.4    
 BOUNDARY      2   LAYER   1   ROW     7   COL     1   RATE    -1918.10      GHB2_UPPER
 BOUNDARY      3   LAYER   1   ROW     7   COL     1   RATE    -13262.7      GHB2_LOWER
 UBDSV4 SAVING RECHARGE         ON UNIT   1016 AT TIME STEP      7, STRESS PERIOD      4

 RECHARGE           PERIOD  4   STEP  7
 BOUNDARY      1   LAYER   1   ROW     1   COL     1   RATE     646.667    
 BOUNDARY      2   LAYER   1   ROW     1   COL     2   RATE     646.667    
 BOUNDARY      3   LAYER   1   ROW     1   COL     3   RATE     646.667    
 BOUNDARY      4   LAYER   1   ROW     1   COL     4   RATE     646.667    
 BOUNDARY      5   LAYER   1   ROW     1   COL     5   RATE     646.667    
 BOUNDARY      6   LAYER   1   ROW     1   COL     6   RATE     646.667    
 BOUNDARY      7   LAYER   1   ROW     1   COL     7   RATE     646.667    
 BOUNDARY      8   LAYER   1   ROW     1   COL     8   RATE     646.667    
 BOUNDARY      9   LAYER   1   ROW     1   COL     9   RATE     646.667    
 BOUNDARY     10   LAYER   1   ROW     1   COL    10   RATE     646.667    
 BOUNDARY     11   LAYER   1   ROW     1   COL    11   RATE     646.667    
 BOUNDARY     12   LAYER   1   ROW     1   COL    12   RATE     646.667    
 BOUNDARY     13   LAYER   1   ROW     1   COL    13   RATE     646.667    
 BOUNDARY     14   LAYER   1   ROW     1   COL    14   RATE     646.667    
 BOUNDARY     15   LAYER   1   ROW     1   COL    15   RATE     646.667    
 BOUNDARY     16   LAYER   1   ROW     2   COL     1   RATE     646.667    
 BOUNDARY     17   LAYER   1   ROW     2   COL     2   RATE     646.667    
 BOUNDARY     18   LAYER   1   ROW     2   COL     3   RATE     646.667    
 BOUNDARY     19   LAYER   1   ROW     2   COL     4   RATE     646.667    
 BOUNDARY     20   LAYER   1   ROW     2   COL     5   RATE     646.667    
 BOUNDARY     21   LAYER   1   ROW     2   COL     6   RATE     646.667    
 BOUNDARY     22   LAYER   1   ROW     2   COL     7   RATE     646.667    
 BOUNDARY     23   LAYER   1   ROW     2   COL     8   RATE     646.667    
 BOUNDARY     24   LAYER   1   ROW     2   COL     9   RATE     646.667    
 BOUNDARY     25   LAYER   1   ROW     2   COL    10   RATE     646.667    
 BOUNDARY     26   LAYER   1   ROW     2   COL    11   RATE     646.667    
 BOUNDARY     27   LAYER   1   ROW     2   COL    12   RATE     646.667    
 BOUNDARY     28   LAYER   1   ROW     2   COL    13   RATE     646.667    
 BOUNDARY     29   LAYER   1   ROW     2   COL    14   RATE     646.667    
 BOUNDARY     30   LAYER   1   ROW     2   COL    15   RATE     646.667    
 BOUNDARY     31   LAYER   1   ROW     3   COL     1   RATE     646.667    
 BOUNDARY     32   LAYER   1   ROW     3   COL     2   RATE     646.667    
 BOUNDARY     33   LAYER   1   ROW     3   COL     3   RATE     646.667    
 BOUNDARY     34   LAYER   1   ROW     3   COL     4   RATE     646.667    
 BOUNDARY     35   LAYER   1   ROW     3   COL     5   RATE     646.667    
 BOUNDARY     36   LAYER   1   ROW     3   COL     6   RATE     646.667    
 BOUNDARY     37   LAYER   1   ROW     3   COL     7   RATE     646.667    
 BOUNDARY     38   LAYER   1   ROW     3   COL     8   RATE     646.667    
 BOUNDARY     39   LAYER   1   ROW     3   COL     9   RATE     646.667    
 BOUNDARY     40   LAYER   1   ROW     3   COL    10   RATE     646.667    
 BOUNDARY     41   LAYER   1   ROW     3   COL    11   RATE     646.667    
 BOUNDARY     42   LAYER   1   ROW     3   COL    12   RATE     646.667    
 BOUNDARY     43   LAYER   1   ROW     3   COL    13   RATE     646.667    
 BOUNDARY     44   LAYER   1   ROW     3   COL    14   RATE     646.667    
 BOUNDARY     45   LAYER   1   ROW     3   COL    15   RATE     646.667    
 BOUNDARY     46   LAYER   1   ROW     4   COL     1   RATE     646.667    
 BOUNDARY     47   LAYER   1   ROW     4   COL     2   RATE     646.667    
 BOUNDARY     48   LAYER   1   ROW     4   COL     3   RATE     646.667    
 BOUNDARY     49   LAYER   1   ROW     4   COL     4   RATE     646.667    
 BOUNDARY     50   LAYER   1   ROW     4   COL     5   RATE     646.667    
 BOUNDARY     51   LAYER   1   ROW     4   COL     6   RATE     646.667    
 BOUNDARY     52   LAYER   1   ROW     4   COL     7   RATE     646.667    
 BOUNDARY     53   LAYER   1   ROW     4   COL     8   RATE     646.667    
 BOUNDARY     54   LAYER   1   ROW     4   COL     9   RATE     646.667    
 BOUNDARY     55   LAYER   1   ROW     4   COL    10   RATE     646.667    
 BOUNDARY     56   LAYER   1   ROW     4   COL    11   RATE     646.667    
 BOUNDARY     57   LAYER   1   ROW     4   COL    12   RATE     646.667    
 BOUNDARY     58   LAYER   1   ROW     4   COL    13   RATE     646.667    
 BOUNDARY     59   LAYER   1   ROW     4   COL    14   RATE     646.667    
 BOUNDARY     60   LAYER   1   ROW     4   COL    15   RATE     646.667    
 BOUNDARY     61   LAYER   1   ROW     5   COL     1   RATE     646.667    
 BOUNDARY     62   LAYER   1   ROW     5   COL     2   RATE     646.667    
 BOUNDARY     63   LAYER   1   ROW     5   COL     3   RATE     646.667    
 BOUNDARY     64   LAYER   1   ROW     5   COL     4   RATE     646.667    
 BOUNDARY     65   LAYER   1   ROW     5   COL     5   RATE     646.667    
 BOUNDARY     66   LAYER   1   ROW     5   COL     6   RATE     646.667    
 BOUNDARY     67   LAYER   1   ROW     5   COL     7   RATE     646.667    
 BOUNDARY     68   LAYER   1   ROW     5   COL     8   RATE     646.667    
 BOUNDARY     69   LAYER   1   ROW     5   COL     9   RATE     646.667    
 BOUNDARY     70   LAYER   1   ROW     5   COL    10   RATE     646.667    
 BOUNDARY     71   LAYER   1   ROW     5   COL    11   RATE     646.667    
 BOUNDARY     72   LAYER   1   ROW     5   COL    12   RATE     646.667    
 BOUNDARY     73   LAYER   1   ROW     5   COL    13   RATE     646.667    
 BOUNDARY     74   LAYER   1   ROW     5   COL    14   RATE     646.667    
 BOUNDARY     75   LAYER   1   ROW     5   COL    15   RATE     646.667    
 BOUNDARY     76   LAYER   1   ROW     6   COL     1   RATE     646.667    
 BOUNDARY     77   LAYER   1   ROW     6   COL     2   RATE     646.667    
 BOUNDARY     78   LAYER   1   ROW     6   COL     3   RATE     646.667    
 BOUNDARY     79   LAYER   1   ROW     6   COL     4   RATE     646.667    
 BOUNDARY     80   LAYER   1   ROW     6   COL     5   RATE     646.667    
 BOUNDARY     81   LAYER   1   ROW     6   COL     6   RATE     646.667    
 BOUNDARY     82   LAYER   1   ROW     6   COL     7   RATE     646.667    
 BOUNDARY     83   LAYER   1   ROW     6   COL     8   RATE     646.667    
 BOUNDARY     84   LAYER   1   ROW     6   COL     9   RATE     646.667    
 BOUNDARY     85   LAYER   1   ROW     6   COL    10   RATE     646.667    
 BOUNDARY     86   LAYER   1   ROW     6   COL    11   RATE     646.667    
 BOUNDARY     87   LAYER   1   ROW     6   COL    12   RATE     646.667    
 BOUNDARY     88   LAYER   1   ROW     6   COL    13   RATE     646.667    
 BOUNDARY     89   LAYER   1   ROW     6   COL    14   RATE     646.667    
 BOUNDARY     90   LAYER   1   ROW     6   COL    15   RATE     646.667    
 BOUNDARY     91   LAYER   1   ROW     7   COL     1   RATE     646.667    
 BOUNDARY     92   LAYER   1   ROW     7   COL     2   RATE     646.667    
 BOUNDARY     93   LAYER   1   ROW     7   COL     3   RATE     646.667    
 BOUNDARY     94   LAYER   1   ROW     7   COL     4   RATE     646.667    
 BOUNDARY     95   LAYER   1   ROW     7   COL     5   RATE     646.667    
 BOUNDARY     96   LAYER   1   ROW     7   COL     6   RATE     646.667    
 BOUNDARY     97   LAYER   1   ROW     7   COL     7   RATE     646.667    
 BOUNDARY     98   LAYER   1   ROW     7   COL     8   RATE     646.667    
 BOUNDARY     99   LAYER   1   ROW     7   COL     9   RATE     646.667    
 BOUNDARY    100   LAYER   1   ROW     7   COL    10   RATE     646.667    
 BOUNDARY    101   LAYER   1   ROW     7   COL    11   RATE     646.667    
 BOUNDARY    102   LAYER   1   ROW     7   COL    12   RATE     646.667    
 BOUNDARY    103   LAYER   1   ROW     7   COL    13   RATE     646.667    
 BOUNDARY    104   LAYER   1   ROW     7   COL    14   RATE     646.667    
 BOUNDARY    105   LAYER   1   ROW     7   COL    15   RATE     646.667    
 BOUNDARY    106   LAYER   1   ROW     8   COL     1   RATE     646.667    
 BOUNDARY    107   LAYER   1   ROW     8   COL     2   RATE     646.667    
 BOUNDARY    108   LAYER   1   ROW     8   COL     3   RATE     646.667    
 BOUNDARY    109   LAYER   1   ROW     8   COL     4   RATE     646.667    
 BOUNDARY    110   LAYER   1   ROW     8   COL     5   RATE     646.667    
 BOUNDARY    111   LAYER   1   ROW     8   COL     6   RATE     646.667    
 BOUNDARY    112   LAYER   1   ROW     8   COL     7   RATE     646.667    
 BOUNDARY    113   LAYER   1   ROW     8   COL     8   RATE     646.667    
 BOUNDARY    114   LAYER   1   ROW     8   COL     9   RATE     646.667    
 BOUNDARY    115   LAYER   1   ROW     8   COL    10   RATE     646.667    
 BOUNDARY    116   LAYER   1   ROW     8   COL    11   RATE     646.667    
 BOUNDARY    117   LAYER   1   ROW     8   COL    12   RATE     646.667    
 BOUNDARY    118   LAYER   1   ROW     8   COL    13   RATE     646.667    
 BOUNDARY    119   LAYER   1   ROW     8   COL    14   RATE     646.667    
 BOUNDARY    120   LAYER   1   ROW     8   COL    15   RATE     646.667    
 BOUNDARY    121   LAYER   1   ROW     9   COL     1   RATE     646.667    
 BOUNDARY    122   LAYER   1   ROW     9   COL     2   RATE     646.667    
 BOUNDARY    123   LAYER   1   ROW     9   COL     3   RATE     646.667    
 BOUNDARY    124   LAYER   1   ROW     9   COL     4   RATE     646.667    
 BOUNDARY    125   LAYER   1   ROW     9   COL     5   RATE     646.667    
 BOUNDARY    126   LAYER   1   ROW     9   COL     6   RATE     646.667    
 BOUNDARY    127   LAYER   1   ROW     9   COL     7   RATE     646.667    
 BOUNDARY    128   LAYER   1   ROW     9   COL     8   RATE     646.667    
 BOUNDARY    129   LAYER   1   ROW     9   COL     9   RATE     646.667    
 BOUNDARY    130   LAYER   1   ROW     9   COL    10   RATE     646.667    
 BOUNDARY    131   LAYER   1   ROW     9   COL    11   RATE     646.667    
 BOUNDARY    132   LAYER   1   ROW     9   COL    12   RATE     646.667    
 BOUNDARY    133   LAYER   1   ROW     9   COL    13   RATE     646.667    
 BOUNDARY    134   LAYER   1   ROW     9   COL    14   RATE     646.667    
 BOUNDARY    135   LAYER   1   ROW     9   COL    15   RATE     646.667    
 BOUNDARY    136   LAYER   1   ROW    10   COL     1   RATE     646.667    
 BOUNDARY    137   LAYER   1   ROW    10   COL     2   RATE     646.667    
 BOUNDARY    138   LAYER   1   ROW    10   COL     3   RATE     646.667    
 BOUNDARY    139   LAYER   1   ROW    10   COL     4   RATE     646.667    
 BOUNDARY    140   LAYER   1   ROW    10   COL     5   RATE     646.667    
 BOUNDARY    141   LAYER   1   ROW    10   COL     6   RATE     646.667    
 BOUNDARY    142   LAYER   1   ROW    10   COL     7   RATE     646.667    
 BOUNDARY    143   LAYER   1   ROW    10   COL     8   RATE     646.667    
 BOUNDARY    144   LAYER   1   ROW    10   COL     9   RATE     646.667    
 BOUNDARY    145   LAYER   1   ROW    10   COL    10   RATE     646.667    
 BOUNDARY    146   LAYER   1   ROW    10   COL    11   RATE     646.667    
 BOUNDARY    147   LAYER   1   ROW    10   COL    12   RATE     646.667    
 BOUNDARY    148   LAYER   1   ROW    10   COL    13   RATE     646.667    
 BOUNDARY    149   LAYER   1   ROW    10   COL    14   RATE     646.667    
 BOUNDARY    150   LAYER   1   ROW    10   COL    15   RATE     646.667    
 UBDSV4 SAVING ET SEGS          ON UNIT   1016 AT TIME STEP      7, STRESS PERIOD      4

 ET SEGS            PERIOD  4   STEP  7
 BOUNDARY      1   LAYER   1   ROW     1   COL     1   RATE    -2.19392    
 BOUNDARY      2   LAYER   1   ROW     1   COL     2   RATE    -8.38502    
 BOUNDARY      3   LAYER   1   ROW     1   COL     3   RATE    -49.1779    
 BOUNDARY      4   LAYER   1   ROW     1   COL     4   RATE    -90.2083    
 BOUNDARY      5   LAYER   1   ROW     1   COL     5   RATE    -90.2083    
 BOUNDARY      6   LAYER   1   ROW     1   COL     6   RATE    -90.2083    
 BOUNDARY      7   LAYER   1   ROW     1   COL     7   RATE    -90.2083    
 BOUNDARY      8   LAYER   1   ROW     1   COL     8   RATE    -90.2083    
 BOUNDARY      9   LAYER   1   ROW     1   COL     9   RATE    -90.2083    
 BOUNDARY     10   LAYER   1   ROW     1   COL    10   RATE    -90.2083    
 BOUNDARY     11   LAYER   1   ROW     1   COL    11   RATE    -90.2083    
 BOUNDARY     12   LAYER   1   ROW     1   COL    12   RATE    -16.1140    
 BOUNDARY     13   LAYER   1   ROW     1   COL    13   RATE     0.00000    
 BOUNDARY     14   LAYER   1   ROW     1   COL    14   RATE     0.00000    
 BOUNDARY     15   LAYER   1   ROW     1   COL    15   RATE     0.00000    
 BOUNDARY     16   LAYER   1   ROW     2   COL     1   RATE     0.00000    
 BOUNDARY     17   LAYER   1   ROW     2   COL     2   RATE    -4.29837    
 BOUNDARY     18   LAYER   1   ROW     2   COL     3   RATE    -26.3299    
 BOUNDARY     19   LAYER   1   ROW     2   COL     4   RATE    -90.2083    
 BOUNDARY     20   LAYER   1   ROW     2   COL     5   RATE    -90.2083    
 BOUNDARY     21   LAYER   1   ROW     2   COL     6   RATE    -90.2083    
 BOUNDARY     22   LAYER   1   ROW     2   COL     7   RATE    -90.2083    
 BOUNDARY     23   LAYER   1   ROW     2   COL     8   RATE    -90.2083    
 BOUNDARY     24   LAYER   1   ROW     2   COL     9   RATE    -90.2083    
 BOUNDARY     25   LAYER   1   ROW     2   COL    10   RATE    -90.2083    
 BOUNDARY     26   LAYER   1   ROW     2   COL    11   RATE    -90.2083    
 BOUNDARY     27   LAYER   1   ROW     2   COL    12   RATE    -17.6860    
 BOUNDARY     28   LAYER   1   ROW     2   COL    13   RATE   -0.375748    
 BOUNDARY     29   LAYER   1   ROW     2   COL    14   RATE     0.00000    
 BOUNDARY     30   LAYER   1   ROW     2   COL    15   RATE     0.00000    
 BOUNDARY     31   LAYER   1   ROW     3   COL     1   RATE     0.00000    
 BOUNDARY     32   LAYER   1   ROW     3   COL     2   RATE     0.00000    
 BOUNDARY     33   LAYER   1   ROW     3   COL     3   RATE    -21.0129    
 BOUNDARY     34   LAYER   1   ROW     3   COL     4   RATE    -90.2083    
 BOUNDARY     35   LAYER   1   ROW     3   COL     5   RATE    -90.2083    
 BOUNDARY     36   LAYER   1   ROW     3   COL     6   RATE    -90.2083    
 BOUNDARY     37   LAYER   1   ROW     3   COL     7   RATE    -90.2083    
 BOUNDARY     38   LAYER   1   ROW     3   COL     8   RATE    -90.2083    
 BOUNDARY     39   LAYER   1   ROW     3   COL     9   RATE    -90.2083    
 BOUNDARY     40   LAYER   1   ROW     3   COL    10   RATE    -90.2083    
 BOUNDARY     41   LAYER   1   ROW     3   COL    11   RATE    -90.2083    
 BOUNDARY     42   LAYER   1   ROW     3   COL    12   RATE    -20.3376    
 BOUNDARY     43   LAYER   1   ROW     3   COL    13   RATE    -1.99270    
 BOUNDARY     44   LAYER   1   ROW     3   COL    14   RATE     0.00000    
 BOUNDARY     45   LAYER   1   ROW     3   COL    15   RATE     0.00000    
 BOUNDARY     46   LAYER   1   ROW     4   COL     1   RATE     0.00000    
 BOUNDARY     47   LAYER   1   ROW     4   COL     2   RATE    -2.94027    
 BOUNDARY     48   LAYER   1   ROW     4   COL     3   RATE    -24.5331    
 BOUNDARY     49   LAYER   1   ROW     4   COL     4   RATE    -90.2083    
 BOUNDARY     50   LAYER   1   ROW     4   COL     5   RATE    -90.2083    
 BOUNDARY     51   LAYER   1   ROW     4   COL     6   RATE    -90.2083    
 BOUNDARY     52   LAYER   1   ROW     4   COL     7   RATE    -90.2083    
 BOUNDARY     53   LAYER   1   ROW     4   COL     8   RATE    -90.2083    
 BOUNDARY     54   LAYER   1   ROW     4   COL     9   RATE    -90.2083    
 BOUNDARY     55   LAYER   1   ROW     4   COL    10   RATE    -90.2083    
 BOUNDARY     56   LAYER   1   ROW     4   COL    11   RATE    -90.2083    
 BOUNDARY     57   LAYER   1   ROW     4   COL    12   RATE    -22.8614    
 BOUNDARY     58   LAYER   1   ROW     4   COL    13   RATE    -3.30658    
 BOUNDARY     59   LAYER   1   ROW     4   COL    14   RATE     0.00000    
 BOUNDARY     60   LAYER   1   ROW     4   COL    15   RATE     0.00000    
 BOUNDARY     61   LAYER   1   ROW     5   COL     1   RATE     0.00000    
 BOUNDARY     62   LAYER   1   ROW     5   COL     2   RATE    -5.62684    
 BOUNDARY     63   LAYER   1   ROW     5   COL     3   RATE    -32.6678    
 BOUNDARY     64   LAYER   1   ROW     5   COL     4   RATE    -90.2083    
 BOUNDARY     65   LAYER   1   ROW     5   COL     5   RATE    -90.2083    
 BOUNDARY     66   LAYER   1   ROW     5   COL     6   RATE    -90.2083    
 BOUNDARY     67   LAYER   1   ROW     5   COL     7   RATE    -90.2083    
 BOUNDARY     68   LAYER   1   ROW     5   COL     8   RATE    -90.2083    
 BOUNDARY     69   LAYER   1   ROW     5   COL     9   RATE    -90.2083    
 BOUNDARY     70   LAYER   1   ROW     5   COL    10   RATE    -90.2083    
 BOUNDARY     71   LAYER   1   ROW     5   COL    11   RATE    -90.2083    
 BOUNDARY     72   LAYER   1   ROW     5   COL    12   RATE    -24.6012    
 BOUNDARY     73   LAYER   1   ROW     5   COL    13   RATE    -4.11218    
 BOUNDARY     74   LAYER   1   ROW     5   COL    14   RATE     0.00000    
 BOUNDARY     75   LAYER   1   ROW     5   COL    15   RATE     0.00000    
 BOUNDARY     76   LAYER   1   ROW     6   COL     1   RATE     0.00000    
 BOUNDARY     77   LAYER   1   ROW     6   COL     2   RATE    -4.33330    
 BOUNDARY     78   LAYER   1   ROW     6   COL     3   RATE    -36.1712    
 BOUNDARY     79   LAYER   1   ROW     6   COL     4   RATE    -90.2083    
 BOUNDARY     80   LAYER   1   ROW     6   COL     5   RATE    -90.2083    
 BOUNDARY     81   LAYER   1   ROW     6   COL     6   RATE    -90.2083    
 BOUNDARY     82   LAYER   1   ROW     6   COL     7   RATE    -90.2083    
 BOUNDARY     83   LAYER   1   ROW     6   COL     8   RATE    -90.2083    
 BOUNDARY     84   LAYER   1   ROW     6   COL     9   RATE    -90.2083    
 BOUNDARY     85   LAYER   1   ROW     6   COL    10   RATE    -90.2083    
 BOUNDARY     86   LAYER   1   ROW     6   COL    11   RATE    -90.2083    
 BOUNDARY     87   LAYER   1   ROW     6   COL    12   RATE    -25.1855    
 BOUNDARY     88   LAYER   1   ROW     6   COL    13   RATE    -4.07134    
 BOUNDARY     89   LAYER   1   ROW     6   COL    14   RATE     0.00000    
 BOUNDARY     90   LAYER   1   ROW     6   COL    15   RATE     0.00000    
 BOUNDARY     91   LAYER   1   ROW     7   COL     1   RATE     0.00000    
 BOUNDARY     92   LAYER   1   ROW     7   COL     2   RATE    -1.16684    
 BOUNDARY     93   LAYER   1   ROW     7   COL     3   RATE    -42.4671    
 BOUNDARY     94   LAYER   1   ROW     7   COL     4   RATE    -90.2083    
 BOUNDARY     95   LAYER   1   ROW     7   COL     5   RATE    -90.2083    
 BOUNDARY     96   LAYER   1   ROW     7   COL     6   RATE    -90.2083    
 BOUNDARY     97   LAYER   1   ROW     7   COL     7   RATE    -90.2083    
 BOUNDARY     98   LAYER   1   ROW     7   COL     8   RATE    -90.2083    
 BOUNDARY     99   LAYER   1   ROW     7   COL     9   RATE    -90.2083    
 BOUNDARY    100   LAYER   1   ROW     7   COL    10   RATE    -90.2083    
 BOUNDARY    101   LAYER   1   ROW     7   COL    11   RATE    -90.2083    
 BOUNDARY    102   LAYER   1   ROW     7   COL    12   RATE    -25.0471    
 BOUNDARY    103   LAYER   1   ROW     7   COL    13   RATE    -3.41897    
 BOUNDARY    104   LAYER   1   ROW     7   COL    14   RATE     0.00000    
 BOUNDARY    105   LAYER   1   ROW     7   COL    15   RATE     0.00000    
 BOUNDARY    106   LAYER   1   ROW     8   COL     1   RATE     0.00000    
 BOUNDARY    107   LAYER   1   ROW     8   COL     2   RATE    -11.0822    
 BOUNDARY    108   LAYER   1   ROW     8   COL     3   RATE    -90.2083    
 BOUNDARY    109   LAYER   1   ROW     8   COL     4   RATE    -90.2083    
 BOUNDARY    110   LAYER   1   ROW     8   COL     5   RATE    -90.2083    
 BOUNDARY    111   LAYER   1   ROW     8   COL     6   RATE    -90.2083    
 BOUNDARY    112   LAYER   1   ROW     8   COL     7   RATE    -90.2083    
 BOUNDARY    113   LAYER   1   ROW     8   COL     8   RATE    -90.2083    
 BOUNDARY    114   LAYER   1   ROW     8   COL     9   RATE    -90.2083    
 BOUNDARY    115   LAYER   1   ROW     8   COL    10   RATE    -90.2083    
 BOUNDARY    116   LAYER   1   ROW     8   COL    11   RATE    -90.2083    
 BOUNDARY    117   LAYER   1   ROW     8   COL    12   RATE    -25.4094    
 BOUNDARY    118   LAYER   1   ROW     8   COL    13   RATE    -3.43593    
 BOUNDARY    119   LAYER   1   ROW     8   COL    14   RATE     0.00000    
 BOUNDARY    120   LAYER   1   ROW     8   COL    15   RATE     0.00000    
 BOUNDARY    121   LAYER   1   ROW     9   COL     1   RATE    -17.9331    
 BOUNDARY    122   LAYER   1   ROW     9   COL     2   RATE    -59.8280    
 BOUNDARY    123   LAYER   1   ROW     9   COL     3   RATE    -90.2083    
 BOUNDARY    124   LAYER   1   ROW     9   COL     4   RATE    -90.2083    
 BOUNDARY    125   LAYER   1   ROW     9   COL     5   RATE    -90.2083    
 BOUNDARY    126   LAYER   1   ROW     9   COL     6   RATE    -90.2083    
 BOUNDARY    127   LAYER   1   ROW     9   COL     7   RATE    -90.2083    
 BOUNDARY    128   LAYER   1   ROW     9   COL     8   RATE    -90.2083    
 BOUNDARY    129   LAYER   1   ROW     9   COL     9   RATE    -90.2083    
 BOUNDARY    130   LAYER   1   ROW     9   COL    10   RATE    -90.2083    
 BOUNDARY    131   LAYER   1   ROW     9   COL    11   RATE    -90.2083    
 BOUNDARY    132   LAYER   1   ROW     9   COL    12   RATE    -26.4168    
 BOUNDARY    133   LAYER   1   ROW     9   COL    13   RATE    -4.19708    
 BOUNDARY    134   LAYER   1   ROW     9   COL    14   RATE     0.00000    
 BOUNDARY    135   LAYER   1   ROW     9   COL    15   RATE     0.00000    
 BOUNDARY    136   LAYER   1   ROW    10   COL     1   RATE    -67.2617    
 BOUNDARY    137   LAYER   1   ROW    10   COL     2   RATE    -90.2083    
 BOUNDARY    138   LAYER   1   ROW    10   COL     3   RATE    -90.2083    
 BOUNDARY    139   LAYER   1   ROW    10   COL     4   RATE    -90.2083    
 BOUNDARY    140   LAYER   1   ROW    10   COL     5   RATE    -90.2083    
 BOUNDARY    141   LAYER   1   ROW    10   COL     6   RATE    -90.2083    
 BOUNDARY    142   LAYER   1   ROW    10   COL     7   RATE    -90.2083    
 BOUNDARY    143   LAYER   1   ROW    10   COL     8   RATE    -90.2083    
 BOUNDARY    144   LAYER   1   ROW    10   COL     9   RATE    -90.2083    
 BOUNDARY    145   LAYER   1   ROW    10   COL    10   RATE    -90.2083    
 BOUNDARY    146   LAYER   1   ROW    10   COL    11   RATE    -90.2083    
 BOUNDARY    147   LAYER   1   ROW    10   COL    12   RATE    -27.4852    
 BOUNDARY    148   LAYER   1   ROW    10   COL    13   RATE    -4.68281    
 BOUNDARY    149   LAYER   1   ROW    10   COL    14   RATE     0.00000    
 BOUNDARY    150   LAYER   1   ROW    10   COL    15   RATE     0.00000    

 HEAD WILL BE SAVED ON UNIT 1017 AT END OF TIME STEP    7, STRESS PERIOD    4
WEL   no.    1 value from time series:   0.0000     for time:  67.00     to  68.00    
WEL   no.    2 value from time series:   0.0000     for time:  67.00     to  68.00    
RIV   no.    1 value from time series:   101.00     for time:  67.00     to  68.00    
RIV   no.    2 value from time series:   101.00     for time:  67.00     to  68.00    
RIV   no.    3 value from time series:   111.50     for time:  67.00     to  68.00    
RIV   no.    4 value from time series:   111.50     for time:  67.00     to  68.00    
RIV   no.    5 value from time series:   115.10     for time:  67.00     to  68.00    
RIV   no.    6 value from time series:   115.10     for time:  67.00     to  68.00    
RIV   no.    7 value from time series:   104.00     for time:  67.00     to  68.00    
RIV   no.    8 value from time series:   104.00     for time:  67.00     to  68.00    
RIV   no.    9 value from time series:   113.50     for time:  67.00     to  68.00    
RIV   no.   10 value from time series:   113.50     for time:  67.00     to  68.00    
WEL   no.    1 value from time series:   0.0000     for time:  67.00     to  68.00    
WEL   no.    2 value from time series:   0.0000     for time:  67.00     to  68.00    
RIV   no.    1 value from time series:   101.00     for time:  67.00     to  68.00    
RIV   no.    2 value from time series:   101.00     for time:  67.00     to  68.00    
RIV   no.    3 value from time series:   111.50     for time:  67.00     to  68.00    
RIV   no.    4 value from time series:   111.50     for time:  67.00     to  68.00    
RIV   no.    5 value from time series:   115.10     for time:  67.00     to  68.00    
RIV   no.    6 value from time series:   115.10     for time:  67.00     to  68.00    
RIV   no.    7 value from time series:   104.00     for time:  67.00     to  68.00    
RIV   no.    8 value from time series:   104.00     for time:  67.00     to  68.00    
RIV   no.    9 value from time series:   113.50     for time:  67.00     to  68.00    
RIV   no.   10 value from time series:   113.50     for time:  67.00     to  68.00    

 OUTPUT CONTROL FOR STRESS PERIOD    4   TIME STEP    8
    SAVE BUDGET
    SAVE HEAD
    SAVE HEAD FOR ALL LAYERS
 UBDSV1 SAVING          STORAGE ON UNIT   1016 AT TIME STEP      8, STRESS PERIOD      4
 UBDSV1 SAVING FLOW RIGHT FACE  ON UNIT   1016 AT TIME STEP      8, STRESS PERIOD      4
 UBDSV1 SAVING FLOW FRONT FACE  ON UNIT   1016 AT TIME STEP      8, STRESS PERIOD      4
 UBDSV1 SAVING FLOW LOWER FACE  ON UNIT   1016 AT TIME STEP      8, STRESS PERIOD      4
 UBDSV4 SAVING WELLS NEAR RIVER ON UNIT   1016 AT TIME STEP      8, STRESS PERIOD      4

 WELLS NEAR RIVER   PERIOD  4   STEP  8
 BOUNDARY      1   LAYER   2   ROW     8   COL     4   RATE     0.00000      WELL_2
 BOUNDARY      2   LAYER   2   ROW     3   COL     4   RATE     0.00000      WELL_1
 UBDSV4 SAVING RIVER            ON UNIT   1016 AT TIME STEP      8, STRESS PERIOD      4

 RIVER              PERIOD  4   STEP  8
 BOUNDARY      1   LAYER   1   ROW     1   COL    15   RATE    -4813.62    
 BOUNDARY      2   LAYER   1   ROW     2   COL    15   RATE    -5933.05      RIV2
 BOUNDARY      3   LAYER   1   ROW     3   COL    15   RATE    -2192.62      RIV3
 BOUNDARY      4   LAYER   1   ROW     4   COL    15   RATE    -3653.67    
 BOUNDARY      5   LAYER   1   ROW     5   COL    15   RATE    -2294.21    
 BOUNDARY      6   LAYER   1   ROW     6   COL    15   RATE    -1644.28    
 BOUNDARY      7   LAYER   1   ROW     7   COL    15   RATE    -6125.04      RIVX
 BOUNDARY      8   LAYER   1   ROW     8   COL    15   RATE    -5968.26      RIVX
 BOUNDARY      9   LAYER   1   ROW     9   COL    15   RATE    -2172.07      RIVX
 BOUNDARY     10   LAYER   1   ROW    10   COL    15   RATE    -3072.05    

 GHB LAKES          PERIOD  4   STEP  8
 BOUNDARY      1   LAYER   1   ROW     3   COL     1   RATE    -14572.9    
 BOUNDARY      2   LAYER   1   ROW     7   COL     1   RATE    -1921.73      GHB2_UPPER
 BOUNDARY      3   LAYER   1   ROW     7   COL     1   RATE    -13264.0      GHB2_LOWER
 UBDSV4 SAVING RECHARGE         ON UNIT   1016 AT TIME STEP      8, STRESS PERIOD      4

 RECHARGE           PERIOD  4   STEP  8
 BOUNDARY      1   LAYER   1   ROW     1   COL     1   RATE     650.000    
 BOUNDARY      2   LAYER   1   ROW     1   COL     2   RATE     650.000    
 BOUNDARY      3   LAYER   1   ROW     1   COL     3   RATE     650.000    
 BOUNDARY      4   LAYER   1   ROW     1   COL     4   RATE     650.000    
 BOUNDARY      5   LAYER   1   ROW     1   COL     5   RATE     650.000    
 BOUNDARY      6   LAYER   1   ROW     1   COL     6   RATE     650.000    
 BOUNDARY      7   LAYER   1   ROW     1   COL     7   RATE     650.000    
 BOUNDARY      8   LAYER   1   ROW     1   COL     8   RATE     650.000    
 BOUNDARY      9   LAYER   1   ROW     1   COL     9   RATE     650.000    
 BOUNDARY     10   LAYER   1   ROW     1   COL    10   RATE     650.000    
 BOUNDARY     11   LAYER   1   ROW     1   COL    11   RATE     650.000    
 BOUNDARY     12   LAYER   1   ROW     1   COL    12   RATE     650.000    
 BOUNDARY     13   LAYER   1   ROW     1   COL    13   RATE     650.000    
 BOUNDARY     14   LAYER   1   ROW     1   COL    14   RATE     650.000    
 BOUNDARY     15   LAYER   1   ROW     1   COL    15   RATE     650.000    
 BOUNDARY     16   LAYER   1   ROW     2   COL     1   RATE     650.000    
 BOUNDARY     17   LAYER   1   ROW     2   COL     2   RATE     650.000    
 BOUNDARY     18   LAYER   1   ROW     2   COL     3   RATE     650.000    
 BOUNDARY     19   LAYER   1   ROW     2   COL     4   RATE     650.000    
 BOUNDARY     20   LAYER   1   ROW     2   COL     5   RATE     650.000    
 BOUNDARY     21   LAYER   1   ROW     2   COL     6   RATE     650.000    
 BOUNDARY     22   LAYER   1   ROW     2   COL     7   RATE     650.000    
 BOUNDARY     23   LAYER   1   ROW     2   COL     8   RATE     650.000    
 BOUNDARY     24   LAYER   1   ROW     2   COL     9   RATE     650.000    
 BOUNDARY     25   LAYER   1   ROW     2   COL    10   RATE     650.000    
 BOUNDARY     26   LAYER   1   ROW     2   COL    11   RATE     650.000    
 BOUNDARY     27   LAYER   1   ROW     2   COL    12   RATE     650.000    
 BOUNDARY     28   LAYER   1   ROW     2   COL    13   RATE     650.000    
 BOUNDARY     29   LAYER   1   ROW     2   COL    14   RATE     650.000    
 BOUNDARY     30   LAYER   1   ROW     2   COL    15   RATE     650.000    
 BOUNDARY     31   LAYER   1   ROW     3   COL     1   RATE     650.000    
 BOUNDARY     32   LAYER   1   ROW     3   COL     2   RATE     650.000    
 BOUNDARY     33   LAYER   1   ROW     3   COL     3   RATE     650.000    
 BOUNDARY     34   LAYER   1   ROW     3   COL     4   RATE     650.000    
 BOUNDARY     35   LAYER   1   ROW     3   COL     5   RATE     650.000    
 BOUNDARY     36   LAYER   1   ROW     3   COL     6   RATE     650.000    
 BOUNDARY     37   LAYER   1   ROW     3   COL     7   RATE     650.000    
 BOUNDARY     38   LAYER   1   ROW     3   COL     8   RATE     650.000    
 BOUNDARY     39   LAYER   1   ROW     3   COL     9   RATE     650.000    
 BOUNDARY     40   LAYER   1   ROW     3   COL    10   RATE     650.000    
 BOUNDARY     41   LAYER   1   ROW     3   COL    11   RATE     650.000    
 BOUNDARY     42   LAYER   1   ROW     3   COL    12   RATE     650.000    
 BOUNDARY     43   LAYER   1   ROW     3   COL    13   RATE     650.000    
 BOUNDARY     44   LAYER   1   ROW     3   COL    14   RATE     650.000    
 BOUNDARY     45   LAYER   1   ROW     3   COL    15   RATE     650.000    
 BOUNDARY     46   LAYER   1   ROW     4   COL     1   RATE     650.000    
 BOUNDARY     47   LAYER   1   ROW     4   COL     2   RATE     650.000    
 BOUNDARY     48   LAYER   1   ROW     4   COL     3   RATE     650.000    
 BOUNDARY     49   LAYER   1   ROW     4   COL     4   RATE     650.000    
 BOUNDARY     50   LAYER   1   ROW     4   COL     5   RATE     650.000    
 BOUNDARY     51   LAYER   1   ROW     4   COL     6   RATE     650.000    
 BOUNDARY     52   LAYER   1   ROW     4   COL     7   RATE     650.000    
 BOUNDARY     53   LAYER   1   ROW     4   COL     8   RATE     650.000    
 BOUNDARY     54   LAYER   1   ROW     4   COL     9   RATE     650.000    
 BOUNDARY     55   LAYER   1   ROW     4   COL    10   RATE     650.000    
 BOUNDARY     56   LAYER   1   ROW     4   COL    11   RATE     650.000    
 BOUNDARY     57   LAYER   1   ROW     4   COL    12   RATE     650.000    
 BOUNDARY     58   LAYER   1   ROW     4   COL    13   RATE     650.000    
 BOUNDARY     59   LAYER   1   ROW     4   COL    14   RATE     650.000    
 BOUNDARY     60   LAYER   1   ROW     4   COL    15   RATE     650.000    
 BOUNDARY     61   LAYER   1   ROW     5   COL     1   RATE     650.000    
 BOUNDARY     62   LAYER   1   ROW     5   COL     2   RATE     650.000    
 BOUNDARY     63   LAYER   1   ROW     5   COL     3   RATE     650.000    
 BOUNDARY     64   LAYER   1   ROW     5   COL     4   RATE     650.000    
 BOUNDARY     65   LAYER   1   ROW     5   COL     5   RATE     650.000    
 BOUNDARY     66   LAYER   1   ROW     5   COL     6   RATE     650.000    
 BOUNDARY     67   LAYER   1   ROW     5   COL     7   RATE     650.000    
 BOUNDARY     68   LAYER   1   ROW     5   COL     8   RATE     650.000    
 BOUNDARY     69   LAYER   1   ROW     5   COL     9   RATE     650.000    
 BOUNDARY     70   LAYER   1   ROW     5   COL    10   RATE     650.000    
 BOUNDARY     71   LAYER   1   ROW     5   COL    11   RATE     650.000    
 BOUNDARY     72   LAYER   1   ROW     5   COL    12   RATE     650.000    
 BOUNDARY     73   LAYER   1   ROW     5   COL    13   RATE     650.000    
 BOUNDARY     74   LAYER   1   ROW     5   COL    14   RATE     650.000    
 BOUNDARY     75   LAYER   1   ROW     5   COL    15   RATE     650.000    
 BOUNDARY     76   LAYER   1   ROW     6   COL     1   RATE     650.000    
 BOUNDARY     77   LAYER   1   ROW     6   COL     2   RATE     650.000    
 BOUNDARY     78   LAYER   1   ROW     6   COL     3   RATE     650.000    
 BOUNDARY     79   LAYER   1   ROW     6   COL     4   RATE     650.000    
 BOUNDARY     80   LAYER   1   ROW     6   COL     5   RATE     650.000    
 BOUNDARY     81   LAYER   1   ROW     6   COL     6   RATE     650.000    
 BOUNDARY     82   LAYER   1   ROW     6   COL     7   RATE     650.000    
 BOUNDARY     83   LAYER   1   ROW     6   COL     8   RATE     650.000    
 BOUNDARY     84   LAYER   1   ROW     6   COL     9   RATE     650.000    
 BOUNDARY     85   LAYER   1   ROW     6   COL    10   RATE     650.000    
 BOUNDARY     86   LAYER   1   ROW     6   COL    11   RATE     650.000    
 BOUNDARY     87   LAYER   1   ROW     6   COL    12   RATE     650.000    
 BOUNDARY     88   LAYER   1   ROW     6   COL    13   RATE     650.000    
 BOUNDARY     89   LAYER   1   ROW     6   COL    14   RATE     650.000    
 BOUNDARY     90   LAYER   1   ROW     6   COL    15   RATE     650.000    
 BOUNDARY     91   LAYER   1   ROW     7   COL     1   RATE     650.000    
 BOUNDARY     92   LAYER   1   ROW     7   COL     2   RATE     650.000    
 BOUNDARY     93   LAYER   1   ROW     7   COL     3   RATE     650.000    
 BOUNDARY     94   LAYER   1   ROW     7   COL     4   RATE     650.000    
 BOUNDARY     95   LAYER   1   ROW     7   COL     5   RATE     650.000    
 BOUNDARY     96   LAYER   1   ROW     7   COL     6   RATE     650.000    
 BOUNDARY     97   LAYER   1   ROW     7   COL     7   RATE     650.000    
 BOUNDARY     98   LAYER   1   ROW     7   COL     8   RATE     650.000    
 BOUNDARY     99   LAYER   1   ROW     7   COL     9   RATE     650.000    
 BOUNDARY    100   LAYER   1   ROW     7   COL    10   RATE     650.000    
 BOUNDARY    101   LAYER   1   ROW     7   COL    11   RATE     650.000    
 BOUNDARY    102   LAYER   1   ROW     7   COL    12   RATE     650.000    
 BOUNDARY    103   LAYER   1   ROW     7   COL    13   RATE     650.000    
 BOUNDARY    104   LAYER   1   ROW     7   COL    14   RATE     650.000    
 BOUNDARY    105   LAYER   1   ROW     7   COL    15   RATE     650.000    
 BOUNDARY    106   LAYER   1   ROW     8   COL     1   RATE     650.000    
 BOUNDARY    107   LAYER   1   ROW     8   COL     2   RATE     650.000    
 BOUNDARY    108   LAYER   1   ROW     8   COL     3   RATE     650.000    
 BOUNDARY    109   LAYER   1   ROW     8   COL     4   RATE     650.000    
 BOUNDARY    110   LAYER   1   ROW     8   COL     5   RATE     650.000    
 BOUNDARY    111   LAYER   1   ROW     8   COL     6   RATE     650.000    
 BOUNDARY    112   LAYER   1   ROW     8   COL     7   RATE     650.000    
 BOUNDARY    113   LAYER   1   ROW     8   COL     8   RATE     650.000    
 BOUNDARY    114   LAYER   1   ROW     8   COL     9   RATE     650.000    
 BOUNDARY    115   LAYER   1   ROW     8   COL    10   RATE     650.000    
 BOUNDARY    116   LAYER   1   ROW     8   COL    11   RATE     650.000    
 BOUNDARY    117   LAYER   1   ROW     8   COL    12   RATE     650.000    
 BOUNDARY    118   LAYER   1   ROW     8   COL    13   RATE     650.000    
 BOUNDARY    119   LAYER   1   ROW     8   COL    14   RATE     650.000    
 BOUNDARY    120   LAYER   1   ROW     8   COL    15   RATE     650.000    
 BOUNDARY    121   LAYER   1   ROW     9   COL     1   RATE     650.000    
 BOUNDARY    122   LAYER   1   ROW     9   COL     2   RATE     650.000    
 BOUNDARY    123   LAYER   1   ROW     9   COL     3   RATE     650.000    
 BOUNDARY    124   LAYER   1   ROW     9   COL     4   RATE     650.000    
 BOUNDARY    125   LAYER   1   ROW     9   COL     5   RATE     650.000    
 BOUNDARY    126   LAYER   1   ROW     9   COL     6   RATE     650.000    
 BOUNDARY    127   LAYER   1   ROW     9   COL     7   RATE     650.000    
 BOUNDARY    128   LAYER   1   ROW     9   COL     8   RATE     650.000    
 BOUNDARY    129   LAYER   1   ROW     9   COL     9   RATE     650.000    
 BOUNDARY    130   LAYER   1   ROW     9   COL    10   RATE     650.000    
 BOUNDARY    131   LAYER   1   ROW     9   COL    11   RATE     650.000    
 BOUNDARY    132   LAYER   1   ROW     9   COL    12   RATE     650.000    
 BOUNDARY    133   LAYER   1   ROW     9   COL    13   RATE     650.000    
 BOUNDARY    134   LAYER   1   ROW     9   COL    14   RATE     650.000    
 BOUNDARY    135   LAYER   1   ROW     9   COL    15   RATE     650.000    
 BOUNDARY    136   LAYER   1   ROW    10   COL     1   RATE     650.000    
 BOUNDARY    137   LAYER   1   ROW    10   COL     2   RATE     650.000    
 BOUNDARY    138   LAYER   1   ROW    10   COL     3   RATE     650.000    
 BOUNDARY    139   LAYER   1   ROW    10   COL     4   RATE     650.000    
 BOUNDARY    140   LAYER   1   ROW    10   COL     5   RATE     650.000    
 BOUNDARY    141   LAYER   1   ROW    10   COL     6   RATE     650.000    
 BOUNDARY    142   LAYER   1   ROW    10   COL     7   RATE     650.000    
 BOUNDARY    143   LAYER   1   ROW    10   COL     8   RATE     650.000    
 BOUNDARY    144   LAYER   1   ROW    10   COL     9   RATE     650.000    
 BOUNDARY    145   LAYER   1   ROW    10   COL    10   RATE     650.000    
 BOUNDARY    146   LAYER   1   ROW    10   COL    11   RATE     650.000    
 BOUNDARY    147   LAYER   1   ROW    10   COL    12   RATE     650.000    
 BOUNDARY    148   LAYER   1   ROW    10   COL    13   RATE     650.000    
 BOUNDARY    149   LAYER   1   ROW    10   COL    14   RATE     650.000    
 BOUNDARY    150   LAYER   1   ROW    10   COL    15   RATE     650.000    
 UBDSV4 SAVING ET SEGS          ON UNIT   1016 AT TIME STEP      8, STRESS PERIOD      4

 ET SEGS            PERIOD  4   STEP  8
 BOUNDARY      1   LAYER   1   ROW     1   COL     1   RATE    -2.21454    
 BOUNDARY      2   LAYER   1   ROW     1   COL     2   RATE    -8.43433    
 BOUNDARY      3   LAYER   1   ROW     1   COL     3   RATE    -49.5901    
 BOUNDARY      4   LAYER   1   ROW     1   COL     4   RATE    -90.6250    
 BOUNDARY      5   LAYER   1   ROW     1   COL     5   RATE    -90.6250    
 BOUNDARY      6   LAYER   1   ROW     1   COL     6   RATE    -90.6250    
 BOUNDARY      7   LAYER   1   ROW     1   COL     7   RATE    -90.6250    
 BOUNDARY      8   LAYER   1   ROW     1   COL     8   RATE    -90.6250    
 BOUNDARY      9   LAYER   1   ROW     1   COL     9   RATE    -90.6250    
 BOUNDARY     10   LAYER   1   ROW     1   COL    10   RATE    -90.6250    
 BOUNDARY     11   LAYER   1   ROW     1   COL    11   RATE    -90.6250    
 BOUNDARY     12   LAYER   1   ROW     1   COL    12   RATE    -16.2258    
 BOUNDARY     13   LAYER   1   ROW     1   COL    13   RATE     0.00000    
 BOUNDARY     14   LAYER   1   ROW     1   COL    14   RATE     0.00000    
 BOUNDARY     15   LAYER   1   ROW     1   COL    15   RATE     0.00000    
 BOUNDARY     16   LAYER   1   ROW     2   COL     1   RATE     0.00000    
 BOUNDARY     17   LAYER   1   ROW     2   COL     2   RATE    -4.32869    
 BOUNDARY     18   LAYER   1   ROW     2   COL     3   RATE    -26.4932    
 BOUNDARY     19   LAYER   1   ROW     2   COL     4   RATE    -90.6250    
 BOUNDARY     20   LAYER   1   ROW     2   COL     5   RATE    -90.6250    
 BOUNDARY     21   LAYER   1   ROW     2   COL     6   RATE    -90.6250    
 BOUNDARY     22   LAYER   1   ROW     2   COL     7   RATE    -90.6250    
 BOUNDARY     23   LAYER   1   ROW     2   COL     8   RATE    -90.6250    
 BOUNDARY     24   LAYER   1   ROW     2   COL     9   RATE    -90.6250    
 BOUNDARY     25   LAYER   1   ROW     2   COL    10   RATE    -90.6250    
 BOUNDARY     26   LAYER   1   ROW     2   COL    11   RATE    -90.6250    
 BOUNDARY     27   LAYER   1   ROW     2   COL    12   RATE    -17.8051    
 BOUNDARY     28   LAYER   1   ROW     2   COL    13   RATE   -0.388501    
 BOUNDARY     29   LAYER   1   ROW     2   COL    14   RATE     0.00000    
 BOUNDARY     30   LAYER   1   ROW     2   COL    15   RATE     0.00000    
 BOUNDARY     31   LAYER   1   ROW     3   COL     1   RATE     0.00000    
 BOUNDARY     32   LAYER   1   ROW     3   COL     2   RATE     0.00000    
 BOUNDARY     33   LAYER   1   ROW     3   COL     3   RATE    -21.1458    
 BOUNDARY     34   LAYER   1   ROW     3   COL     4   RATE    -90.6250    
 BOUNDARY     35   LAYER   1   ROW     3   COL     5   RATE    -90.6250    
 BOUNDARY     36   LAYER   1   ROW     3   COL     6   RATE    -90.6250    
 BOUNDARY     37   LAYER   1   ROW     3   COL     7   RATE    -90.6250    
 BOUNDARY     38   LAYER   1   ROW     3   COL     8   RATE    -90.6250    
 BOUNDARY     39   LAYER   1   ROW     3   COL     9   RATE    -90.6250    
 BOUNDARY     40   LAYER   1   ROW     3   COL    10   RATE    -90.6250    
 BOUNDARY     41   LAYER   1   ROW     3   COL    11   RATE    -90.6250    
 BOUNDARY     42   LAYER   1   ROW     3   COL    12   RATE    -20.4690    
 BOUNDARY     43   LAYER   1   ROW     3   COL    13   RATE    -2.01304    
 BOUNDARY     44   LAYER   1   ROW     3   COL    14   RATE     0.00000    
 BOUNDARY     45   LAYER   1   ROW     3   COL    15   RATE     0.00000    
 BOUNDARY     46   LAYER   1   ROW     4   COL     1   RATE     0.00000    
 BOUNDARY     47   LAYER   1   ROW     4   COL     2   RATE    -2.96436    
 BOUNDARY     48   LAYER   1   ROW     4   COL     3   RATE    -24.6825    
 BOUNDARY     49   LAYER   1   ROW     4   COL     4   RATE    -90.6250    
 BOUNDARY     50   LAYER   1   ROW     4   COL     5   RATE    -90.6250    
 BOUNDARY     51   LAYER   1   ROW     4   COL     6   RATE    -90.6250    
 BOUNDARY     52   LAYER   1   ROW     4   COL     7   RATE    -90.6250    
 BOUNDARY     53   LAYER   1   ROW     4   COL     8   RATE    -90.6250    
 BOUNDARY     54   LAYER   1   ROW     4   COL     9   RATE    -90.6250    
 BOUNDARY     55   LAYER   1   ROW     4   COL    10   RATE    -90.6250    
 BOUNDARY     56   LAYER   1   ROW     4   COL    11   RATE    -90.6250    
 BOUNDARY     57   LAYER   1   ROW     4   COL    12   RATE    -23.0042    
 BOUNDARY     58   LAYER   1   ROW     4   COL    13   RATE    -3.33282    
 BOUNDARY     59   LAYER   1   ROW     4   COL    14   RATE     0.00000    
 BOUNDARY     60   LAYER   1   ROW     4   COL    15   RATE     0.00000    
 BOUNDARY     61   LAYER   1   ROW     5   COL     1   RATE     0.00000    
 BOUNDARY     62   LAYER   1   ROW     5   COL     2   RATE    -5.66347    
 BOUNDARY     63   LAYER   1   ROW     5   COL     3   RATE    -33.0064    
 BOUNDARY     64   LAYER   1   ROW     5   COL     4   RATE    -90.6250    
 BOUNDARY     65   LAYER   1   ROW     5   COL     5   RATE    -90.6250    
 BOUNDARY     66   LAYER   1   ROW     5   COL     6   RATE    -90.6250    
 BOUNDARY     67   LAYER   1   ROW     5   COL     7   RATE    -90.6250    
 BOUNDARY     68   LAYER   1   ROW     5   COL     8   RATE    -90.6250    
 BOUNDARY     69   LAYER   1   ROW     5   COL     9   RATE    -90.6250    
 BOUNDARY     70   LAYER   1   ROW     5   COL    10   RATE    -90.6250    
 BOUNDARY     71   LAYER   1   ROW     5   COL    11   RATE    -90.6250    
 BOUNDARY     72   LAYER   1   ROW     5   COL    12   RATE    -24.7516    
 BOUNDARY     73   LAYER   1   ROW     5   COL    13   RATE    -4.14179    
 BOUNDARY     74   LAYER   1   ROW     5   COL    14   RATE     0.00000    
 BOUNDARY     75   LAYER   1   ROW     5   COL    15   RATE     0.00000    
 BOUNDARY     76   LAYER   1   ROW     6   COL     1   RATE     0.00000    
 BOUNDARY     77   LAYER   1   ROW     6   COL     2   RATE    -4.36376    
 BOUNDARY     78   LAYER   1   ROW     6   COL     3   RATE    -36.5252    
 BOUNDARY     79   LAYER   1   ROW     6   COL     4   RATE    -90.6250    
 BOUNDARY     80   LAYER   1   ROW     6   COL     5   RATE    -90.6250    
 BOUNDARY     81   LAYER   1   ROW     6   COL     6   RATE    -90.6250    
 BOUNDARY     82   LAYER   1   ROW     6   COL     7   RATE    -90.6250    
 BOUNDARY     83   LAYER   1   ROW     6   COL     8   RATE    -90.6250    
 BOUNDARY     84   LAYER   1   ROW     6   COL     9   RATE    -90.6250    
 BOUNDARY     85   LAYER   1   ROW     6   COL    10   RATE    -90.6250    
 BOUNDARY     86   LAYER   1   ROW     6   COL    11   RATE    -90.6250    
 BOUNDARY     87   LAYER   1   ROW     6   COL    12   RATE    -25.3385    
 BOUNDARY     88   LAYER   1   ROW     6   COL    13   RATE    -4.10063    
 BOUNDARY     89   LAYER   1   ROW     6   COL    14   RATE     0.00000    
 BOUNDARY     90   LAYER   1   ROW     6   COL    15   RATE     0.00000    
 BOUNDARY     91   LAYER   1   ROW     7   COL     1   RATE     0.00000    
 BOUNDARY     92   LAYER   1   ROW     7   COL     2   RATE    -1.18213    
 BOUNDARY     93   LAYER   1   ROW     7   COL     3   RATE    -42.8495    
 BOUNDARY     94   LAYER   1   ROW     7   COL     4   RATE    -90.6250    
 BOUNDARY     95   LAYER   1   ROW     7   COL     5   RATE    -90.6250    
 BOUNDARY     96   LAYER   1   ROW     7   COL     6   RATE    -90.6250    
 BOUNDARY     97   LAYER   1   ROW     7   COL     7   RATE    -90.6250    
 BOUNDARY     98   LAYER   1   ROW     7   COL     8   RATE    -90.6250    
 BOUNDARY     99   LAYER   1   ROW     7   COL     9   RATE    -90.6250    
 BOUNDARY    100   LAYER   1   ROW     7   COL    10   RATE    -90.6250    
 BOUNDARY    101   LAYER   1   ROW     7   COL    11   RATE    -90.6250    
 BOUNDARY    102   LAYER   1   ROW     7   COL    12   RATE    -25.1997    
 BOUNDARY    103   LAYER   1   ROW     7   COL    13   RATE    -3.44545    
 BOUNDARY    104   LAYER   1   ROW     7   COL    14   RATE     0.00000    
 BOUNDARY    105   LAYER   1   ROW     7   COL    15   RATE     0.00000    
 BOUNDARY    106   LAYER   1   ROW     8   COL     1   RATE     0.00000    
 BOUNDARY    107   LAYER   1   ROW     8   COL     2   RATE    -11.1687    
 BOUNDARY    108   LAYER   1   ROW     8   COL     3   RATE    -90.6250    
 BOUNDARY    109   LAYER   1   ROW     8   COL     4   RATE    -90.6250    
 BOUNDARY    110   LAYER   1   ROW     8   COL     5   RATE    -90.6250    
 BOUNDARY    111   LAYER   1   ROW     8   COL     6   RATE    -90.6250    
 BOUNDARY    112   LAYER   1   ROW     8   COL     7   RATE    -90.6250    
 BOUNDARY    113   LAYER   1   ROW     8   COL     8   RATE    -90.6250    
 BOUNDARY    114   LAYER   1   ROW     8   COL     9   RATE    -90.6250    
 BOUNDARY    115   LAYER   1   ROW     8   COL    10   RATE    -90.6250    
 BOUNDARY    116   LAYER   1   ROW     8   COL    11   RATE    -90.6250    
 BOUNDARY    117   LAYER   1   ROW     8   COL    12   RATE    -25.5641    
 BOUNDARY    118   LAYER   1   ROW     8   COL    13   RATE    -3.46293    
 BOUNDARY    119   LAYER   1   ROW     8   COL    14   RATE     0.00000    
 BOUNDARY    120   LAYER   1   ROW     8   COL    15   RATE     0.00000    
 BOUNDARY    121   LAYER   1   ROW     9   COL     1   RATE    -18.0516    
 BOUNDARY    122   LAYER   1   ROW     9   COL     2   RATE    -60.2922    
 BOUNDARY    123   LAYER   1   ROW     9   COL     3   RATE    -90.6250    
 BOUNDARY    124   LAYER   1   ROW     9   COL     4   RATE    -90.6250    
 BOUNDARY    125   LAYER   1   ROW     9   COL     5   RATE    -90.6250    
 BOUNDARY    126   LAYER   1   ROW     9   COL     6   RATE    -90.6250    
 BOUNDARY    127   LAYER   1   ROW     9   COL     7   RATE    -90.6250    
 BOUNDARY    128   LAYER   1   ROW     9   COL     8   RATE    -90.6250    
 BOUNDARY    129   LAYER   1   ROW     9   COL     9   RATE    -90.6250    
 BOUNDARY    130   LAYER   1   ROW     9   COL    10   RATE    -90.6250    
 BOUNDARY    131   LAYER   1   ROW     9   COL    11   RATE    -90.6250    
 BOUNDARY    132   LAYER   1   ROW     9   COL    12   RATE    -26.5768    
 BOUNDARY    133   LAYER   1   ROW     9   COL    13   RATE    -4.22816    
 BOUNDARY    134   LAYER   1   ROW     9   COL    14   RATE     0.00000    
 BOUNDARY    135   LAYER   1   ROW     9   COL    15   RATE     0.00000    
 BOUNDARY    136   LAYER   1   ROW    10   COL     1   RATE    -67.7589    
 BOUNDARY    137   LAYER   1   ROW    10   COL     2   RATE    -90.6250    
 BOUNDARY    138   LAYER   1   ROW    10   COL     3   RATE    -90.6250    
 BOUNDARY    139   LAYER   1   ROW    10   COL     4   RATE    -90.6250    
 BOUNDARY    140   LAYER   1   ROW    10   COL     5   RATE    -90.6250    
 BOUNDARY    141   LAYER   1   ROW    10   COL     6   RATE    -90.6250    
 BOUNDARY    142   LAYER   1   ROW    10   COL     7   RATE    -90.6250    
 BOUNDARY    143   LAYER   1   ROW    10   COL     8   RATE    -90.6250    
 BOUNDARY    144   LAYER   1   ROW    10   COL     9   RATE    -90.6250    
 BOUNDARY    145   LAYER   1   ROW    10   COL    10   RATE    -90.6250    
 BOUNDARY    146   LAYER   1   ROW    10   COL    11   RATE    -90.6250    
 BOUNDARY    147   LAYER   1   ROW    10   COL    12   RATE    -27.8130    
 BOUNDARY    148   LAYER   1   ROW    10   COL    13   RATE    -4.71645    
 BOUNDARY    149   LAYER   1   ROW    10   COL    14   RATE     0.00000    
 BOUNDARY    150   LAYER   1   ROW    10   COL    15   RATE     0.00000    

 HEAD WILL BE SAVED ON UNIT 1017 AT END OF TIME STEP    8, STRESS PERIOD    4
WEL   no.    1 value from time series:   0.0000     for time:  68.00     to  69.00    
WEL   no.    2 value from time series:   0.0000     for time:  68.00     to  69.00    
RIV   no.    1 value from time series:   101.00     for time:  68.00     to  69.00    
RIV   no.    2 value from time series:   101.00     for time:  68.00     to  69.00    
RIV   no.    3 value from time series:   111.50     for time:  68.00     to  69.00    
RIV   no.    4 value from time series:   111.50     for time:  68.00     to  69.00    
RIV   no.    5 value from time series:   115.10     for time:  68.00     to  69.00    
RIV   no.    6 value from time series:   115.10     for time:  68.00     to  69.00    
RIV   no.    7 value from time series:   104.00     for time:  68.00     to  69.00    
RIV   no.    8 value from time series:   104.00     for time:  68.00     to  69.00    
RIV   no.    9 value from time series:   113.50     for time:  68.00     to  69.00    
RIV   no.   10 value from time series:   113.50     for time:  68.00     to  69.00    
WEL   no.    1 value from time series:   0.0000     for time:  68.00     to  69.00    
WEL   no.    2 value from time series:   0.0000     for time:  68.00     to  69.00    
RIV   no.    1 value from time series:   101.00     for time:  68.00     to  69.00    
RIV   no.    2 value from time series:   101.00     for time:  68.00     to  69.00    
RIV   no.    3 value from time series:   111.50     for time:  68.00     to  69.00    
RIV   no.    4 value from time series:   111.50     for time:  68.00     to  69.00    
RIV   no.    5 value from time series:   115.10     for time:  68.00     to  69.00    
RIV   no.    6 value from time series:   115.10     for time:  68.00     to  69.00    
RIV   no.    7 value from time series:   104.00     for time:  68.00     to  69.00    
RIV   no.    8 value from time series:   104.00     for time:  68.00     to  69.00    
RIV   no.    9 value from time series:   113.50     for time:  68.00     to  69.00    
RIV   no.   10 value from time series:   113.50     for time:  68.00     to  69.00    

 OUTPUT CONTROL FOR STRESS PERIOD    4   TIME STEP    9
    SAVE BUDGET
    SAVE HEAD
    SAVE HEAD FOR ALL LAYERS
 UBDSV1 SAVING          STORAGE ON UNIT   1016 AT TIME STEP      9, STRESS PERIOD      4
 UBDSV1 SAVING FLOW RIGHT FACE  ON UNIT   1016 AT TIME STEP      9, STRESS PERIOD      4
 UBDSV1 SAVING FLOW FRONT FACE  ON UNIT   1016 AT TIME STEP      9, STRESS PERIOD      4
 UBDSV1 SAVING FLOW LOWER FACE  ON UNIT   1016 AT TIME STEP      9, STRESS PERIOD      4
 UBDSV4 SAVING WELLS NEAR RIVER ON UNIT   1016 AT TIME STEP      9, STRESS PERIOD      4

 WELLS NEAR RIVER   PERIOD  4   STEP  9
 BOUNDARY      1   LAYER   2   ROW     8   COL     4   RATE     0.00000      WELL_2
 BOUNDARY      2   LAYER   2   ROW     3   COL     4   RATE     0.00000      WELL_1
 UBDSV4 SAVING RIVER            ON UNIT   1016 AT TIME STEP      9, STRESS PERIOD      4

 RIVER              PERIOD  4   STEP  9
 BOUNDARY      1   LAYER   1   ROW     1   COL    15   RATE    -4814.93    
 BOUNDARY      2   LAYER   1   ROW     2   COL    15   RATE    -5934.61      RIV2
 BOUNDARY      3   LAYER   1   ROW     3   COL    15   RATE    -2194.68      RIV3
 BOUNDARY      4   LAYER   1   ROW     4   COL    15   RATE    -3655.84    
 BOUNDARY      5   LAYER   1   ROW     5   COL    15   RATE    -2296.28    
 BOUNDARY      6   LAYER   1   ROW     6   COL    15   RATE    -1646.23    
 BOUNDARY      7   LAYER   1   ROW     7   COL    15   RATE    -6126.94      RIVX
 BOUNDARY      8   LAYER   1   ROW     8   COL    15   RATE    -5970.39      RIVX
 BOUNDARY      9   LAYER   1   ROW     9   COL    15   RATE    -2174.59      RIVX
 BOUNDARY     10   LAYER   1   ROW    10   COL    15   RATE    -3074.81    

 GHB LAKES          PERIOD  4   STEP  9
 BOUNDARY      1   LAYER   1   ROW     3   COL     1   RATE    -14577.4    
 BOUNDARY      2   LAYER   1   ROW     7   COL     1   RATE    -1925.44      GHB2_UPPER
 BOUNDARY      3   LAYER   1   ROW     7   COL     1   RATE    -13265.3      GHB2_LOWER
 UBDSV4 SAVING RECHARGE         ON UNIT   1016 AT TIME STEP      9, STRESS PERIOD      4

 RECHARGE           PERIOD  4   STEP  9
 BOUNDARY      1   LAYER   1   ROW     1   COL     1   RATE     653.333    
 BOUNDARY      2   LAYER   1   ROW     1   COL     2   RATE     653.333    
 BOUNDARY      3   LAYER   1   ROW     1   COL     3   RATE     653.333    
 BOUNDARY      4   LAYER   1   ROW     1   COL     4   RATE     653.333    
 BOUNDARY      5   LAYER   1   ROW     1   COL     5   RATE     653.333    
 BOUNDARY      6   LAYER   1   ROW     1   COL     6   RATE     653.333    
 BOUNDARY      7   LAYER   1   ROW     1   COL     7   RATE     653.333    
 BOUNDARY      8   LAYER   1   ROW     1   COL     8   RATE     653.333    
 BOUNDARY      9   LAYER   1   ROW     1   COL     9   RATE     653.333    
 BOUNDARY     10   LAYER   1   ROW     1   COL    10   RATE     653.333    
 BOUNDARY     11   LAYER   1   ROW     1   COL    11   RATE     653.333    
 BOUNDARY     12   LAYER   1   ROW     1   COL    12   RATE     653.333    
 BOUNDARY     13   LAYER   1   ROW     1   COL    13   RATE     653.333    
 BOUNDARY     14   LAYER   1   ROW     1   COL    14   RATE     653.333    
 BOUNDARY     15   LAYER   1   ROW     1   COL    15   RATE     653.333    
 BOUNDARY     16   LAYER   1   ROW     2   COL     1   RATE     653.333    
 BOUNDARY     17   LAYER   1   ROW     2   COL     2   RATE     653.333    
 BOUNDARY     18   LAYER   1   ROW     2   COL     3   RATE     653.333    
 BOUNDARY     19   LAYER   1   ROW     2   COL     4   RATE     653.333    
 BOUNDARY     20   LAYER   1   ROW     2   COL     5   RATE     653.333    
 BOUNDARY     21   LAYER   1   ROW     2   COL     6   RATE     653.333    
 BOUNDARY     22   LAYER   1   ROW     2   COL     7   RATE     653.333    
 BOUNDARY     23   LAYER   1   ROW     2   COL     8   RATE     653.333    
 BOUNDARY     24   LAYER   1   ROW     2   COL     9   RATE     653.333    
 BOUNDARY     25   LAYER   1   ROW     2   COL    10   RATE     653.333    
 BOUNDARY     26   LAYER   1   ROW     2   COL    11   RATE     653.333    
 BOUNDARY     27   LAYER   1   ROW     2   COL    12   RATE     653.333    
 BOUNDARY     28   LAYER   1   ROW     2   COL    13   RATE     653.333    
 BOUNDARY     29   LAYER   1   ROW     2   COL    14   RATE     653.333    
 BOUNDARY     30   LAYER   1   ROW     2   COL    15   RATE     653.333    
 BOUNDARY     31   LAYER   1   ROW     3   COL     1   RATE     653.333    
 BOUNDARY     32   LAYER   1   ROW     3   COL     2   RATE     653.333    
 BOUNDARY     33   LAYER   1   ROW     3   COL     3   RATE     653.333    
 BOUNDARY     34   LAYER   1   ROW     3   COL     4   RATE     653.333    
 BOUNDARY     35   LAYER   1   ROW     3   COL     5   RATE     653.333    
 BOUNDARY     36   LAYER   1   ROW     3   COL     6   RATE     653.333    
 BOUNDARY     37   LAYER   1   ROW     3   COL     7   RATE     653.333    
 BOUNDARY     38   LAYER   1   ROW     3   COL     8   RATE     653.333    
 BOUNDARY     39   LAYER   1   ROW     3   COL     9   RATE     653.333    
 BOUNDARY     40   LAYER   1   ROW     3   COL    10   RATE     653.333    
 BOUNDARY     41   LAYER   1   ROW     3   COL    11   RATE     653.333    
 BOUNDARY     42   LAYER   1   ROW     3   COL    12   RATE     653.333    
 BOUNDARY     43   LAYER   1   ROW     3   COL    13   RATE     653.333    
 BOUNDARY     44   LAYER   1   ROW     3   COL    14   RATE     653.333    
 BOUNDARY     45   LAYER   1   ROW     3   COL    15   RATE     653.333    
 BOUNDARY     46   LAYER   1   ROW     4   COL     1   RATE     653.333    
 BOUNDARY     47   LAYER   1   ROW     4   COL     2   RATE     653.333    
 BOUNDARY     48   LAYER   1   ROW     4   COL     3   RATE     653.333    
 BOUNDARY     49   LAYER   1   ROW     4   COL     4   RATE     653.333    
 BOUNDARY     50   LAYER   1   ROW     4   COL     5   RATE     653.333    
 BOUNDARY     51   LAYER   1   ROW     4   COL     6   RATE     653.333    
 BOUNDARY     52   LAYER   1   ROW     4   COL     7   RATE     653.333    
 BOUNDARY     53   LAYER   1   ROW     4   COL     8   RATE     653.333    
 BOUNDARY     54   LAYER   1   ROW     4   COL     9   RATE     653.333    
 BOUNDARY     55   LAYER   1   ROW     4   COL    10   RATE     653.333    
 BOUNDARY     56   LAYER   1   ROW     4   COL    11   RATE     653.333    
 BOUNDARY     57   LAYER   1   ROW     4   COL    12   RATE     653.333    
 BOUNDARY     58   LAYER   1   ROW     4   COL    13   RATE     653.333    
 BOUNDARY     59   LAYER   1   ROW     4   COL    14   RATE     653.333    
 BOUNDARY     60   LAYER   1   ROW     4   COL    15   RATE     653.333    
 BOUNDARY     61   LAYER   1   ROW     5   COL     1   RATE     653.333    
 BOUNDARY     62   LAYER   1   ROW     5   COL     2   RATE     653.333    
 BOUNDARY     63   LAYER   1   ROW     5   COL     3   RATE     653.333    
 BOUNDARY     64   LAYER   1   ROW     5   COL     4   RATE     653.333    
 BOUNDARY     65   LAYER   1   ROW     5   COL     5   RATE     653.333    
 BOUNDARY     66   LAYER   1   ROW     5   COL     6   RATE     653.333    
 BOUNDARY     67   LAYER   1   ROW     5   COL     7   RATE     653.333    
 BOUNDARY     68   LAYER   1   ROW     5   COL     8   RATE     653.333    
 BOUNDARY     69   LAYER   1   ROW     5   COL     9   RATE     653.333    
 BOUNDARY     70   LAYER   1   ROW     5   COL    10   RATE     653.333    
 BOUNDARY     71   LAYER   1   ROW     5   COL    11   RATE     653.333    
 BOUNDARY     72   LAYER   1   ROW     5   COL    12   RATE     653.333    
 BOUNDARY     73   LAYER   1   ROW     5   COL    13   RATE     653.333    
 BOUNDARY     74   LAYER   1   ROW     5   COL    14   RATE     653.333    
 BOUNDARY     75   LAYER   1   ROW     5   COL    15   RATE     653.333    
 BOUNDARY     76   LAYER   1   ROW     6   COL     1   RATE     653.333    
 BOUNDARY     77   LAYER   1   ROW     6   COL     2   RATE     653.333    
 BOUNDARY     78   LAYER   1   ROW     6   COL     3   RATE     653.333    
 BOUNDARY     79   LAYER   1   ROW     6   COL     4   RATE     653.333    
 BOUNDARY     80   LAYER   1   ROW     6   COL     5   RATE     653.333    
 BOUNDARY     81   LAYER   1   ROW     6   COL     6   RATE     653.333    
 BOUNDARY     82   LAYER   1   ROW     6   COL     7   RATE     653.333    
 BOUNDARY     83   LAYER   1   ROW     6   COL     8   RATE     653.333    
 BOUNDARY     84   LAYER   1   ROW     6   COL     9   RATE     653.333    
 BOUNDARY     85   LAYER   1   ROW     6   COL    10   RATE     653.333    
 BOUNDARY     86   LAYER   1   ROW     6   COL    11   RATE     653.333    
 BOUNDARY     87   LAYER   1   ROW     6   COL    12   RATE     653.333    
 BOUNDARY     88   LAYER   1   ROW     6   COL    13   RATE     653.333    
 BOUNDARY     89   LAYER   1   ROW     6   COL    14   RATE     653.333    
 BOUNDARY     90   LAYER   1   ROW     6   COL    15   RATE     653.333    
 BOUNDARY     91   LAYER   1   ROW     7   COL     1   RATE     653.333    
 BOUNDARY     92   LAYER   1   ROW     7   COL     2   RATE     653.333    
 BOUNDARY     93   LAYER   1   ROW     7   COL     3   RATE     653.333    
 BOUNDARY     94   LAYER   1   ROW     7   COL     4   RATE     653.333    
 BOUNDARY     95   LAYER   1   ROW     7   COL     5   RATE     653.333    
 BOUNDARY     96   LAYER   1   ROW     7   COL     6   RATE     653.333    
 BOUNDARY     97   LAYER   1   ROW     7   COL     7   RATE     653.333    
 BOUNDARY     98   LAYER   1   ROW     7   COL     8   RATE     653.333    
 BOUNDARY     99   LAYER   1   ROW     7   COL     9   RATE     653.333    
 BOUNDARY    100   LAYER   1   ROW     7   COL    10   RATE     653.333    
 BOUNDARY    101   LAYER   1   ROW     7   COL    11   RATE     653.333    
 BOUNDARY    102   LAYER   1   ROW     7   COL    12   RATE     653.333    
 BOUNDARY    103   LAYER   1   ROW     7   COL    13   RATE     653.333    
 BOUNDARY    104   LAYER   1   ROW     7   COL    14   RATE     653.333    
 BOUNDARY    105   LAYER   1   ROW     7   COL    15   RATE     653.333    
 BOUNDARY    106   LAYER   1   ROW     8   COL     1   RATE     653.333    
 BOUNDARY    107   LAYER   1   ROW     8   COL     2   RATE     653.333    
 BOUNDARY    108   LAYER   1   ROW     8   COL     3   RATE     653.333    
 BOUNDARY    109   LAYER   1   ROW     8   COL     4   RATE     653.333    
 BOUNDARY    110   LAYER   1   ROW     8   COL     5   RATE     653.333    
 BOUNDARY    111   LAYER   1   ROW     8   COL     6   RATE     653.333    
 BOUNDARY    112   LAYER   1   ROW     8   COL     7   RATE     653.333    
 BOUNDARY    113   LAYER   1   ROW     8   COL     8   RATE     653.333    
 BOUNDARY    114   LAYER   1   ROW     8   COL     9   RATE     653.333    
 BOUNDARY    115   LAYER   1   ROW     8   COL    10   RATE     653.333    
 BOUNDARY    116   LAYER   1   ROW     8   COL    11   RATE     653.333    
 BOUNDARY    117   LAYER   1   ROW     8   COL    12   RATE     653.333    
 BOUNDARY    118   LAYER   1   ROW     8   COL    13   RATE     653.333    
 BOUNDARY    119   LAYER   1   ROW     8   COL    14   RATE     653.333    
 BOUNDARY    120   LAYER   1   ROW     8   COL    15   RATE     653.333    
 BOUNDARY    121   LAYER   1   ROW     9   COL     1   RATE     653.333    
 BOUNDARY    122   LAYER   1   ROW     9   COL     2   RATE     653.333    
 BOUNDARY    123   LAYER   1   ROW     9   COL     3   RATE     653.333    
 BOUNDARY    124   LAYER   1   ROW     9   COL     4   RATE     653.333    
 BOUNDARY    125   LAYER   1   ROW     9   COL     5   RATE     653.333    
 BOUNDARY    126   LAYER   1   ROW     9   COL     6   RATE     653.333    
 BOUNDARY    127   LAYER   1   ROW     9   COL     7   RATE     653.333    
 BOUNDARY    128   LAYER   1   ROW     9   COL     8   RATE     653.333    
 BOUNDARY    129   LAYER   1   ROW     9   COL     9   RATE     653.333    
 BOUNDARY    130   LAYER   1   ROW     9   COL    10   RATE     653.333    
 BOUNDARY    131   LAYER   1   ROW     9   COL    11   RATE     653.333    
 BOUNDARY    132   LAYER   1   ROW     9   COL    12   RATE     653.333    
 BOUNDARY    133   LAYER   1   ROW     9   COL    13   RATE     653.333    
 BOUNDARY    134   LAYER   1   ROW     9   COL    14   RATE     653.333    
 BOUNDARY    135   LAYER   1   ROW     9   COL    15   RATE     653.333    
 BOUNDARY    136   LAYER   1   ROW    10   COL     1   RATE     653.333    
 BOUNDARY    137   LAYER   1   ROW    10   COL     2   RATE     653.333    
 BOUNDARY    138   LAYER   1   ROW    10   COL     3   RATE     653.333    
 BOUNDARY    139   LAYER   1   ROW    10   COL     4   RATE     653.333    
 BOUNDARY    140   LAYER   1   ROW    10   COL     5   RATE     653.333    
 BOUNDARY    141   LAYER   1   ROW    10   COL     6   RATE     653.333    
 BOUNDARY    142   LAYER   1   ROW    10   COL     7   RATE     653.333    
 BOUNDARY    143   LAYER   1   ROW    10   COL     8   RATE     653.333    
 BOUNDARY    144   LAYER   1   ROW    10   COL     9   RATE     653.333    
 BOUNDARY    145   LAYER   1   ROW    10   COL    10   RATE     653.333    
 BOUNDARY    146   LAYER   1   ROW    10   COL    11   RATE     653.333    
 BOUNDARY    147   LAYER   1   ROW    10   COL    12   RATE     653.333    
 BOUNDARY    148   LAYER   1   ROW    10   COL    13   RATE     653.333    
 BOUNDARY    149   LAYER   1   ROW    10   COL    14   RATE     653.333    
 BOUNDARY    150   LAYER   1   ROW    10   COL    15   RATE     653.333    
 UBDSV4 SAVING ET SEGS          ON UNIT   1016 AT TIME STEP      9, STRESS PERIOD      4

 ET SEGS            PERIOD  4   STEP  9
 BOUNDARY      1   LAYER   1   ROW     1   COL     1   RATE    -2.23549    
 BOUNDARY      2   LAYER   1   ROW     1   COL     2   RATE    -8.48397    
 BOUNDARY      3   LAYER   1   ROW     1   COL     3   RATE    -50.0082    
 BOUNDARY      4   LAYER   1   ROW     1   COL     4   RATE    -91.0417    
 BOUNDARY      5   LAYER   1   ROW     1   COL     5   RATE    -91.0417    
 BOUNDARY      6   LAYER   1   ROW     1   COL     6   RATE    -91.0417    
 BOUNDARY      7   LAYER   1   ROW     1   COL     7   RATE    -91.0417    
 BOUNDARY      8   LAYER   1   ROW     1   COL     8   RATE    -91.0417    
 BOUNDARY      9   LAYER   1   ROW     1   COL     9   RATE    -91.0417    
 BOUNDARY     10   LAYER   1   ROW     1   COL    10   RATE    -91.0417    
 BOUNDARY     11   LAYER   1   ROW     1   COL    11   RATE    -91.0417    
 BOUNDARY     12   LAYER   1   ROW     1   COL    12   RATE    -16.3387    
 BOUNDARY     13   LAYER   1   ROW     1   COL    13   RATE     0.00000    
 BOUNDARY     14   LAYER   1   ROW     1   COL    14   RATE     0.00000    
 BOUNDARY     15   LAYER   1   ROW     1   COL    15   RATE     0.00000    
 BOUNDARY     16   LAYER   1   ROW     2   COL     1   RATE     0.00000    
 BOUNDARY     17   LAYER   1   ROW     2   COL     2   RATE    -4.35935    
 BOUNDARY     18   LAYER   1   ROW     2   COL     3   RATE    -26.6573    
 BOUNDARY     19   LAYER   1   ROW     2   COL     4   RATE    -91.0417    
 BOUNDARY     20   LAYER   1   ROW     2   COL     5   RATE    -91.0417    
 BOUNDARY     21   LAYER   1   ROW     2   COL     6   RATE    -91.0417    
 BOUNDARY     22   LAYER   1   ROW     2   COL     7   RATE    -91.0417    
 BOUNDARY     23   LAYER   1   ROW     2   COL     8   RATE    -91.0417    
 BOUNDARY     24   LAYER   1   ROW     2   COL     9   RATE    -91.0417    
 BOUNDARY     25   LAYER   1   ROW     2   COL    10   RATE    -91.0417    
 BOUNDARY     26   LAYER   1   ROW     2   COL    11   RATE    -91.0417    
 BOUNDARY     27   LAYER   1   ROW     2   COL    12   RATE    -17.9253    
 BOUNDARY     28   LAYER   1   ROW     2   COL    13   RATE   -0.401573    
 BOUNDARY     29   LAYER   1   ROW     2   COL    14   RATE     0.00000    
 BOUNDARY     30   LAYER   1   ROW     2   COL    15   RATE     0.00000    
 BOUNDARY     31   LAYER   1   ROW     3   COL     1   RATE     0.00000    
 BOUNDARY     32   LAYER   1   ROW     3   COL     2   RATE     0.00000    
 BOUNDARY     33   LAYER   1   ROW     3   COL     3   RATE    -21.2798    
 BOUNDARY     34   LAYER   1   ROW     3   COL     4   RATE    -91.0417    
 BOUNDARY     35   LAYER   1   ROW     3   COL     5   RATE    -91.0417    
 BOUNDARY     36   LAYER   1   ROW     3   COL     6   RATE    -91.0417    
 BOUNDARY     37   LAYER   1   ROW     3   COL     7   RATE    -91.0417    
 BOUNDARY     38   LAYER   1   ROW     3   COL     8   RATE    -91.0417    
 BOUNDARY     39   LAYER   1   ROW     3   COL     9   RATE    -91.0417    
 BOUNDARY     40   LAYER   1   ROW     3   COL    10   RATE    -91.0417    
 BOUNDARY     41   LAYER   1   ROW     3   COL    11   RATE    -91.0417    
 BOUNDARY     42   LAYER   1   ROW     3   COL    12   RATE    -20.6014    
 BOUNDARY     43   LAYER   1   ROW     3   COL    13   RATE    -2.03370    
 BOUNDARY     44   LAYER   1   ROW     3   COL    14   RATE     0.00000    
 BOUNDARY     45   LAYER   1   ROW     3   COL    15   RATE     0.00000    
 BOUNDARY     46   LAYER   1   ROW     4   COL     1   RATE     0.00000    
 BOUNDARY     47   LAYER   1   ROW     4   COL     2   RATE    -2.98877    
 BOUNDARY     48   LAYER   1   ROW     4   COL     3   RATE    -24.8329    
 BOUNDARY     49   LAYER   1   ROW     4   COL     4   RATE    -91.0417    
 BOUNDARY     50   LAYER   1   ROW     4   COL     5   RATE    -91.0417    
 BOUNDARY     51   LAYER   1   ROW     4   COL     6   RATE    -91.0417    
 BOUNDARY     52   LAYER   1   ROW     4   COL     7   RATE    -91.0417    
 BOUNDARY     53   LAYER   1   ROW     4   COL     8   RATE    -91.0417    
 BOUNDARY     54   LAYER   1   ROW     4   COL     9   RATE    -91.0417    
 BOUNDARY     55   LAYER   1   ROW     4   COL    10   RATE    -91.0417    
 BOUNDARY     56   LAYER   1   ROW     4   COL    11   RATE    -91.0417    
 BOUNDARY     57   LAYER   1   ROW     4   COL    12   RATE    -23.1480    
 BOUNDARY     58   LAYER   1   ROW     4   COL    13   RATE    -3.35937    
 BOUNDARY     59   LAYER   1   ROW     4   COL    14   RATE     0.00000    
 BOUNDARY     60   LAYER   1   ROW     4   COL    15   RATE     0.00000    
 BOUNDARY     61   LAYER   1   ROW     5   COL     1   RATE     0.00000    
 BOUNDARY     62   LAYER   1   ROW     5   COL     2   RATE    -5.70043    
 BOUNDARY     63   LAYER   1   ROW     5   COL     3   RATE    -33.3506    
 BOUNDARY     64   LAYER   1   ROW     5   COL     4   RATE    -91.0417    
 BOUNDARY     65   LAYER   1   ROW     5   COL     5   RATE    -91.0417    
 BOUNDARY     66   LAYER   1   ROW     5   COL     6   RATE    -91.0417    
 BOUNDARY     67   LAYER   1   ROW     5   COL     7   RATE    -91.0417    
 BOUNDARY     68   LAYER   1   ROW     5   COL     8   RATE    -91.0417    
 BOUNDARY     69   LAYER   1   ROW     5   COL     9   RATE    -91.0417    
 BOUNDARY     70   LAYER   1   ROW     5   COL    10   RATE    -91.0417    
 BOUNDARY     71   LAYER   1   ROW     5   COL    11   RATE    -91.0417    
 BOUNDARY     72   LAYER   1   ROW     5   COL    12   RATE    -24.9031    
 BOUNDARY     73   LAYER   1   ROW     5   COL    13   RATE    -4.17171    
 BOUNDARY     74   LAYER   1   ROW     5   COL    14   RATE     0.00000    
 BOUNDARY     75   LAYER   1   ROW     5   COL    15   RATE     0.00000    
 BOUNDARY     76   LAYER   1   ROW     6   COL     1   RATE     0.00000    
 BOUNDARY     77   LAYER   1   ROW     6   COL     2   RATE    -4.39455    
 BOUNDARY     78   LAYER   1   ROW     6   COL     3   RATE    -36.8848    
 BOUNDARY     79   LAYER   1   ROW     6   COL     4   RATE    -91.0417    
 BOUNDARY     80   LAYER   1   ROW     6   COL     5   RATE    -91.0417    
 BOUNDARY     81   LAYER   1   ROW     6   COL     6   RATE    -91.0417    
 BOUNDARY     82   LAYER   1   ROW     6   COL     7   RATE    -91.0417    
 BOUNDARY     83   LAYER   1   ROW     6   COL     8   RATE    -91.0417    
 BOUNDARY     84   LAYER   1   ROW     6   COL     9   RATE    -91.0417    
 BOUNDARY     85   LAYER   1   ROW     6   COL    10   RATE    -91.0417    
 BOUNDARY     86   LAYER   1   ROW     6   COL    11   RATE    -91.0417    
 BOUNDARY     87   LAYER   1   ROW     6   COL    12   RATE    -25.4926    
 BOUNDARY     88   LAYER   1   ROW     6   COL    13   RATE    -4.13023    
 BOUNDARY     89   LAYER   1   ROW     6   COL    14   RATE     0.00000    
 BOUNDARY     90   LAYER   1   ROW     6   COL    15   RATE     0.00000    
 BOUNDARY     91   LAYER   1   ROW     7   COL     1   RATE     0.00000    
 BOUNDARY     92   LAYER   1   ROW     7   COL     2   RATE    -1.19774    
 BOUNDARY     93   LAYER   1   ROW     7   COL     3   RATE    -43.2374    
 BOUNDARY     94   LAYER   1   ROW     7   COL     4   RATE    -91.0417    
 BOUNDARY     95   LAYER   1   ROW     7   COL     5   RATE    -91.0417    
 BOUNDARY     96   LAYER   1   ROW     7   COL     6   RATE    -91.0417    
 BOUNDARY     97   LAYER   1   ROW     7   COL     7   RATE    -91.0417    
 BOUNDARY     98   LAYER   1   ROW     7   COL     8   RATE    -91.0417    
 BOUNDARY     99   LAYER   1   ROW     7   COL     9   RATE    -91.0417    
 BOUNDARY    100   LAYER   1   ROW     7   COL    10   RATE    -91.0417    
 BOUNDARY    101   LAYER   1   ROW     7   COL    11   RATE    -91.0417    
 BOUNDARY    102   LAYER   1   ROW     7   COL    12   RATE    -25.3534    
 BOUNDARY    103   LAYER   1   ROW     7   COL    13   RATE    -3.47224    
 BOUNDARY    104   LAYER   1   ROW     7   COL    14   RATE     0.00000    
 BOUNDARY    105   LAYER   1   ROW     7   COL    15   RATE     0.00000    
 BOUNDARY    106   LAYER   1   ROW     8   COL     1   RATE     0.00000    
 BOUNDARY    107   LAYER   1   ROW     8   COL     2   RATE    -11.2563    
 BOUNDARY    108   LAYER   1   ROW     8   COL     3   RATE    -91.0417    
 BOUNDARY    109   LAYER   1   ROW     8   COL     4   RATE    -91.0417    
 BOUNDARY    110   LAYER   1   ROW     8   COL     5   RATE    -91.0417    
 BOUNDARY    111   LAYER   1   ROW     8   COL     6   RATE    -91.0417    
 BOUNDARY    112   LAYER   1   ROW     8   COL     7   RATE    -91.0417    
 BOUNDARY    113   LAYER   1   ROW     8   COL     8   RATE    -91.0417    
 BOUNDARY    114   LAYER   1   ROW     8   COL     9   RATE    -91.0417    
 BOUNDARY    115   LAYER   1   ROW     8   COL    10   RATE    -91.0417    
 BOUNDARY    116   LAYER   1   ROW     8   COL    11   RATE    -91.0417    
 BOUNDARY    117   LAYER   1   ROW     8   COL    12   RATE    -25.7200    
 BOUNDARY    118   LAYER   1   ROW     8   COL    13   RATE    -3.49025    
 BOUNDARY    119   LAYER   1   ROW     8   COL    14   RATE     0.00000    
 BOUNDARY    120   LAYER   1   ROW     8   COL    15   RATE     0.00000    
 BOUNDARY    121   LAYER   1   ROW     9   COL     1   RATE    -18.1711    
 BOUNDARY    122   LAYER   1   ROW     9   COL     2   RATE    -60.7617    
 BOUNDARY    123   LAYER   1   ROW     9   COL     3   RATE    -91.0417    
 BOUNDARY    124   LAYER   1   ROW     9   COL     4   RATE    -91.0417    
 BOUNDARY    125   LAYER   1   ROW     9   COL     5   RATE    -91.0417    
 BOUNDARY    126   LAYER   1   ROW     9   COL     6   RATE    -91.0417    
 BOUNDARY    127   LAYER   1   ROW     9   COL     7   RATE    -91.0417    
 BOUNDARY    128   LAYER   1   ROW     9   COL     8   RATE    -91.0417    
 BOUNDARY    129   LAYER   1   ROW     9   COL     9   RATE    -91.0417    
 BOUNDARY    130   LAYER   1   ROW     9   COL    10   RATE    -91.0417    
 BOUNDARY    131   LAYER   1   ROW     9   COL    11   RATE    -91.0417    
 BOUNDARY    132   LAYER   1   ROW     9   COL    12   RATE    -26.7380    
 BOUNDARY    133   LAYER   1   ROW     9   COL    13   RATE    -4.25956    
 BOUNDARY    134   LAYER   1   ROW     9   COL    14   RATE     0.00000    
 BOUNDARY    135   LAYER   1   ROW     9   COL    15   RATE     0.00000    
 BOUNDARY    136   LAYER   1   ROW    10   COL     1   RATE    -68.2615    
 BOUNDARY    137   LAYER   1   ROW    10   COL     2   RATE    -91.0417    
 BOUNDARY    138   LAYER   1   ROW    10   COL     3   RATE    -91.0417    
 BOUNDARY    139   LAYER   1   ROW    10   COL     4   RATE    -91.0417    
 BOUNDARY    140   LAYER   1   ROW    10   COL     5   RATE    -91.0417    
 BOUNDARY    141   LAYER   1   ROW    10   COL     6   RATE    -91.0417    
 BOUNDARY    142   LAYER   1   ROW    10   COL     7   RATE    -91.0417    
 BOUNDARY    143   LAYER   1   ROW    10   COL     8   RATE    -91.0417    
 BOUNDARY    144   LAYER   1   ROW    10   COL     9   RATE    -91.0417    
 BOUNDARY    145   LAYER   1   ROW    10   COL    10   RATE    -91.0417    
 BOUNDARY    146   LAYER   1   ROW    10   COL    11   RATE    -91.0417    
 BOUNDARY    147   LAYER   1   ROW    10   COL    12   RATE    -28.1465    
 BOUNDARY    148   LAYER   1   ROW    10   COL    13   RATE    -4.75041    
 BOUNDARY    149   LAYER   1   ROW    10   COL    14   RATE     0.00000    
 BOUNDARY    150   LAYER   1   ROW    10   COL    15   RATE     0.00000    

 HEAD WILL BE SAVED ON UNIT 1017 AT END OF TIME STEP    9, STRESS PERIOD    4
WEL   no.    1 value from time series:   0.0000     for time:  69.00     to  70.00    
WEL   no.    2 value from time series:   0.0000     for time:  69.00     to  70.00    
RIV   no.    1 value from time series:   101.00     for time:  69.00     to  70.00    
RIV   no.    2 value from time series:   101.00     for time:  69.00     to  70.00    
RIV   no.    3 value from time series:   111.50     for time:  69.00     to  70.00    
RIV   no.    4 value from time series:   111.50     for time:  69.00     to  70.00    
RIV   no.    5 value from time series:   115.10     for time:  69.00     to  70.00    
RIV   no.    6 value from time series:   115.10     for time:  69.00     to  70.00    
RIV   no.    7 value from time series:   104.00     for time:  69.00     to  70.00    
RIV   no.    8 value from time series:   104.00     for time:  69.00     to  70.00    
RIV   no.    9 value from time series:   113.50     for time:  69.00     to  70.00    
RIV   no.   10 value from time series:   113.50     for time:  69.00     to  70.00    
WEL   no.    1 value from time series:   0.0000     for time:  69.00     to  70.00    
WEL   no.    2 value from time series:   0.0000     for time:  69.00     to  70.00    
RIV   no.    1 value from time series:   101.00     for time:  69.00     to  70.00    
RIV   no.    2 value from time series:   101.00     for time:  69.00     to  70.00    
RIV   no.    3 value from time series:   111.50     for time:  69.00     to  70.00    
RIV   no.    4 value from time series:   111.50     for time:  69.00     to  70.00    
RIV   no.    5 value from time series:   115.10     for time:  69.00     to  70.00    
RIV   no.    6 value from time series:   115.10     for time:  69.00     to  70.00    
RIV   no.    7 value from time series:   104.00     for time:  69.00     to  70.00    
RIV   no.    8 value from time series:   104.00     for time:  69.00     to  70.00    
RIV   no.    9 value from time series:   113.50     for time:  69.00     to  70.00    
RIV   no.   10 value from time series:   113.50     for time:  69.00     to  70.00    

 OUTPUT CONTROL FOR STRESS PERIOD    4   TIME STEP   10
    SAVE BUDGET
    SAVE HEAD
    SAVE HEAD FOR ALL LAYERS
 UBDSV1 SAVING          STORAGE ON UNIT   1016 AT TIME STEP     10, STRESS PERIOD      4
 UBDSV1 SAVING FLOW RIGHT FACE  ON UNIT   1016 AT TIME STEP     10, STRESS PERIOD      4
 UBDSV1 SAVING FLOW FRONT FACE  ON UNIT   1016 AT TIME STEP     10, STRESS PERIOD      4
 UBDSV1 SAVING FLOW LOWER FACE  ON UNIT   1016 AT TIME STEP     10, STRESS PERIOD      4
 UBDSV4 SAVING WELLS NEAR RIVER ON UNIT   1016 AT TIME STEP     10, STRESS PERIOD      4

 WELLS NEAR RIVER   PERIOD  4   STEP 10
 BOUNDARY      1   LAYER   2   ROW     8   COL     4   RATE     0.00000      WELL_2
 BOUNDARY      2   LAYER   2   ROW     3   COL     4   RATE     0.00000      WELL_1
 UBDSV4 SAVING RIVER            ON UNIT   1016 AT TIME STEP     10, STRESS PERIOD      4

 RIVER              PERIOD  4   STEP 10
 BOUNDARY      1   LAYER   1   ROW     1   COL    15   RATE    -4816.36    
 BOUNDARY      2   LAYER   1   ROW     2   COL    15   RATE    -5936.29      RIV2
 BOUNDARY      3   LAYER   1   ROW     3   COL    15   RATE    -2196.83      RIV3
 BOUNDARY      4   LAYER   1   ROW     4   COL    15   RATE    -3658.10    
 BOUNDARY      5   LAYER   1   ROW     5   COL    15   RATE    -2298.43    
 BOUNDARY      6   LAYER   1   ROW     6   COL    15   RATE    -1648.27    
 BOUNDARY      7   LAYER   1   ROW     7   COL    15   RATE    -6128.94      RIVX
 BOUNDARY      8   LAYER   1   ROW     8   COL    15   RATE    -5972.62      RIVX
 BOUNDARY      9   LAYER   1   ROW     9   COL    15   RATE    -2177.19      RIVX
 BOUNDARY     10   LAYER   1   ROW    10   COL    15   RATE    -3077.63    

 GHB LAKES          PERIOD  4   STEP 10
 BOUNDARY      1   LAYER   1   ROW     3   COL     1   RATE    -14582.1    
 BOUNDARY      2   LAYER   1   ROW     7   COL     1   RATE    -1929.24      GHB2_UPPER
 BOUNDARY      3   LAYER   1   ROW     7   COL     1   RATE    -13266.7      GHB2_LOWER
 UBDSV4 SAVING RECHARGE         ON UNIT   1016 AT TIME STEP     10, STRESS PERIOD      4

 RECHARGE           PERIOD  4   STEP 10
 BOUNDARY      1   LAYER   1   ROW     1   COL     1   RATE     656.667    
 BOUNDARY      2   LAYER   1   ROW     1   COL     2   RATE     656.667    
 BOUNDARY      3   LAYER   1   ROW     1   COL     3   RATE     656.667    
 BOUNDARY      4   LAYER   1   ROW     1   COL     4   RATE     656.667    
 BOUNDARY      5   LAYER   1   ROW     1   COL     5   RATE     656.667    
 BOUNDARY      6   LAYER   1   ROW     1   COL     6   RATE     656.667    
 BOUNDARY      7   LAYER   1   ROW     1   COL     7   RATE     656.667    
 BOUNDARY      8   LAYER   1   ROW     1   COL     8   RATE     656.667    
 BOUNDARY      9   LAYER   1   ROW     1   COL     9   RATE     656.667    
 BOUNDARY     10   LAYER   1   ROW     1   COL    10   RATE     656.667    
 BOUNDARY     11   LAYER   1   ROW     1   COL    11   RATE     656.667    
 BOUNDARY     12   LAYER   1   ROW     1   COL    12   RATE     656.667    
 BOUNDARY     13   LAYER   1   ROW     1   COL    13   RATE     656.667    
 BOUNDARY     14   LAYER   1   ROW     1   COL    14   RATE     656.667    
 BOUNDARY     15   LAYER   1   ROW     1   COL    15   RATE     656.667    
 BOUNDARY     16   LAYER   1   ROW     2   COL     1   RATE     656.667    
 BOUNDARY     17   LAYER   1   ROW     2   COL     2   RATE     656.667    
 BOUNDARY     18   LAYER   1   ROW     2   COL     3   RATE     656.667    
 BOUNDARY     19   LAYER   1   ROW     2   COL     4   RATE     656.667    
 BOUNDARY     20   LAYER   1   ROW     2   COL     5   RATE     656.667    
 BOUNDARY     21   LAYER   1   ROW     2   COL     6   RATE     656.667    
 BOUNDARY     22   LAYER   1   ROW     2   COL     7   RATE     656.667    
 BOUNDARY     23   LAYER   1   ROW     2   COL     8   RATE     656.667    
 BOUNDARY     24   LAYER   1   ROW     2   COL     9   RATE     656.667    
 BOUNDARY     25   LAYER   1   ROW     2   COL    10   RATE     656.667    
 BOUNDARY     26   LAYER   1   ROW     2   COL    11   RATE     656.667    
 BOUNDARY     27   LAYER   1   ROW     2   COL    12   RATE     656.667    
 BOUNDARY     28   LAYER   1   ROW     2   COL    13   RATE     656.667    
 BOUNDARY     29   LAYER   1   ROW     2   COL    14   RATE     656.667    
 BOUNDARY     30   LAYER   1   ROW     2   COL    15   RATE     656.667    
 BOUNDARY     31   LAYER   1   ROW     3   COL     1   RATE     656.667    
 BOUNDARY     32   LAYER   1   ROW     3   COL     2   RATE     656.667    
 BOUNDARY     33   LAYER   1   ROW     3   COL     3   RATE     656.667    
 BOUNDARY     34   LAYER   1   ROW     3   COL     4   RATE     656.667    
 BOUNDARY     35   LAYER   1   ROW     3   COL     5   RATE     656.667    
 BOUNDARY     36   LAYER   1   ROW     3   COL     6   RATE     656.667    
 BOUNDARY     37   LAYER   1   ROW     3   COL     7   RATE     656.667    
 BOUNDARY     38   LAYER   1   ROW     3   COL     8   RATE     656.667    
 BOUNDARY     39   LAYER   1   ROW     3   COL     9   RATE     656.667    
 BOUNDARY     40   LAYER   1   ROW     3   COL    10   RATE     656.667    
 BOUNDARY     41   LAYER   1   ROW     3   COL    11   RATE     656.667    
 BOUNDARY     42   LAYER   1   ROW     3   COL    12   RATE     656.667    
 BOUNDARY     43   LAYER   1   ROW     3   COL    13   RATE     656.667    
 BOUNDARY     44   LAYER   1   ROW     3   COL    14   RATE     656.667    
 BOUNDARY     45   LAYER   1   ROW     3   COL    15   RATE     656.667    
 BOUNDARY     46   LAYER   1   ROW     4   COL     1   RATE     656.667    
 BOUNDARY     47   LAYER   1   ROW     4   COL     2   RATE     656.667    
 BOUNDARY     48   LAYER   1   ROW     4   COL     3   RATE     656.667    
 BOUNDARY     49   LAYER   1   ROW     4   COL     4   RATE     656.667    
 BOUNDARY     50   LAYER   1   ROW     4   COL     5   RATE     656.667    
 BOUNDARY     51   LAYER   1   ROW     4   COL     6   RATE     656.667    
 BOUNDARY     52   LAYER   1   ROW     4   COL     7   RATE     656.667    
 BOUNDARY     53   LAYER   1   ROW     4   COL     8   RATE     656.667    
 BOUNDARY     54   LAYER   1   ROW     4   COL     9   RATE     656.667    
 BOUNDARY     55   LAYER   1   ROW     4   COL    10   RATE     656.667    
 BOUNDARY     56   LAYER   1   ROW     4   COL    11   RATE     656.667    
 BOUNDARY     57   LAYER   1   ROW     4   COL    12   RATE     656.667    
 BOUNDARY     58   LAYER   1   ROW     4   COL    13   RATE     656.667    
 BOUNDARY     59   LAYER   1   ROW     4   COL    14   RATE     656.667    
 BOUNDARY     60   LAYER   1   ROW     4   COL    15   RATE     656.667    
 BOUNDARY     61   LAYER   1   ROW     5   COL     1   RATE     656.667    
 BOUNDARY     62   LAYER   1   ROW     5   COL     2   RATE     656.667    
 BOUNDARY     63   LAYER   1   ROW     5   COL     3   RATE     656.667    
 BOUNDARY     64   LAYER   1   ROW     5   COL     4   RATE     656.667    
 BOUNDARY     65   LAYER   1   ROW     5   COL     5   RATE     656.667    
 BOUNDARY     66   LAYER   1   ROW     5   COL     6   RATE     656.667    
 BOUNDARY     67   LAYER   1   ROW     5   COL     7   RATE     656.667    
 BOUNDARY     68   LAYER   1   ROW     5   COL     8   RATE     656.667    
 BOUNDARY     69   LAYER   1   ROW     5   COL     9   RATE     656.667    
 BOUNDARY     70   LAYER   1   ROW     5   COL    10   RATE     656.667    
 BOUNDARY     71   LAYER   1   ROW     5   COL    11   RATE     656.667    
 BOUNDARY     72   LAYER   1   ROW     5   COL    12   RATE     656.667    
 BOUNDARY     73   LAYER   1   ROW     5   COL    13   RATE     656.667    
 BOUNDARY     74   LAYER   1   ROW     5   COL    14   RATE     656.667    
 BOUNDARY     75   LAYER   1   ROW     5   COL    15   RATE     656.667    
 BOUNDARY     76   LAYER   1   ROW     6   COL     1   RATE     656.667    
 BOUNDARY     77   LAYER   1   ROW     6   COL     2   RATE     656.667    
 BOUNDARY     78   LAYER   1   ROW     6   COL     3   RATE     656.667    
 BOUNDARY     79   LAYER   1   ROW     6   COL     4   RATE     656.667    
 BOUNDARY     80   LAYER   1   ROW     6   COL     5   RATE     656.667    
 BOUNDARY     81   LAYER   1   ROW     6   COL     6   RATE     656.667    
 BOUNDARY     82   LAYER   1   ROW     6   COL     7   RATE     656.667    
 BOUNDARY     83   LAYER   1   ROW     6   COL     8   RATE     656.667    
 BOUNDARY     84   LAYER   1   ROW     6   COL     9   RATE     656.667    
 BOUNDARY     85   LAYER   1   ROW     6   COL    10   RATE     656.667    
 BOUNDARY     86   LAYER   1   ROW     6   COL    11   RATE     656.667    
 BOUNDARY     87   LAYER   1   ROW     6   COL    12   RATE     656.667    
 BOUNDARY     88   LAYER   1   ROW     6   COL    13   RATE     656.667    
 BOUNDARY     89   LAYER   1   ROW     6   COL    14   RATE     656.667    
 BOUNDARY     90   LAYER   1   ROW     6   COL    15   RATE     656.667    
 BOUNDARY     91   LAYER   1   ROW     7   COL     1   RATE     656.667    
 BOUNDARY     92   LAYER   1   ROW     7   COL     2   RATE     656.667    
 BOUNDARY     93   LAYER   1   ROW     7   COL     3   RATE     656.667    
 BOUNDARY     94   LAYER   1   ROW     7   COL     4   RATE     656.667    
 BOUNDARY     95   LAYER   1   ROW     7   COL     5   RATE     656.667    
 BOUNDARY     96   LAYER   1   ROW     7   COL     6   RATE     656.667    
 BOUNDARY     97   LAYER   1   ROW     7   COL     7   RATE     656.667    
 BOUNDARY     98   LAYER   1   ROW     7   COL     8   RATE     656.667    
 BOUNDARY     99   LAYER   1   ROW     7   COL     9   RATE     656.667    
 BOUNDARY    100   LAYER   1   ROW     7   COL    10   RATE     656.667    
 BOUNDARY    101   LAYER   1   ROW     7   COL    11   RATE     656.667    
 BOUNDARY    102   LAYER   1   ROW     7   COL    12   RATE     656.667    
 BOUNDARY    103   LAYER   1   ROW     7   COL    13   RATE     656.667    
 BOUNDARY    104   LAYER   1   ROW     7   COL    14   RATE     656.667    
 BOUNDARY    105   LAYER   1   ROW     7   COL    15   RATE     656.667    
 BOUNDARY    106   LAYER   1   ROW     8   COL     1   RATE     656.667    
 BOUNDARY    107   LAYER   1   ROW     8   COL     2   RATE     656.667    
 BOUNDARY    108   LAYER   1   ROW     8   COL     3   RATE     656.667    
 BOUNDARY    109   LAYER   1   ROW     8   COL     4   RATE     656.667    
 BOUNDARY    110   LAYER   1   ROW     8   COL     5   RATE     656.667    
 BOUNDARY    111   LAYER   1   ROW     8   COL     6   RATE     656.667    
 BOUNDARY    112   LAYER   1   ROW     8   COL     7   RATE     656.667    
 BOUNDARY    113   LAYER   1   ROW     8   COL     8   RATE     656.667    
 BOUNDARY    114   LAYER   1   ROW     8   COL     9   RATE     656.667    
 BOUNDARY    115   LAYER   1   ROW     8   COL    10   RATE     656.667    
 BOUNDARY    116   LAYER   1   ROW     8   COL    11   RATE     656.667    
 BOUNDARY    117   LAYER   1   ROW     8   COL    12   RATE     656.667    
 BOUNDARY    118   LAYER   1   ROW     8   COL    13   RATE     656.667    
 BOUNDARY    119   LAYER   1   ROW     8   COL    14   RATE     656.667    
 BOUNDARY    120   LAYER   1   ROW     8   COL    15   RATE     656.667    
 BOUNDARY    121   LAYER   1   ROW     9   COL     1   RATE     656.667    
 BOUNDARY    122   LAYER   1   ROW     9   COL     2   RATE     656.667    
 BOUNDARY    123   LAYER   1   ROW     9   COL     3   RATE     656.667    
 BOUNDARY    124   LAYER   1   ROW     9   COL     4   RATE     656.667    
 BOUNDARY    125   LAYER   1   ROW     9   COL     5   RATE     656.667    
 BOUNDARY    126   LAYER   1   ROW     9   COL     6   RATE     656.667    
 BOUNDARY    127   LAYER   1   ROW     9   COL     7   RATE     656.667    
 BOUNDARY    128   LAYER   1   ROW     9   COL     8   RATE     656.667    
 BOUNDARY    129   LAYER   1   ROW     9   COL     9   RATE     656.667    
 BOUNDARY    130   LAYER   1   ROW     9   COL    10   RATE     656.667    
 BOUNDARY    131   LAYER   1   ROW     9   COL    11   RATE     656.667    
 BOUNDARY    132   LAYER   1   ROW     9   COL    12   RATE     656.667    
 BOUNDARY    133   LAYER   1   ROW     9   COL    13   RATE     656.667    
 BOUNDARY    134   LAYER   1   ROW     9   COL    14   RATE     656.667    
 BOUNDARY    135   LAYER   1   ROW     9   COL    15   RATE     656.667    
 BOUNDARY    136   LAYER   1   ROW    10   COL     1   RATE     656.667    
 BOUNDARY    137   LAYER   1   ROW    10   COL     2   RATE     656.667    
 BOUNDARY    138   LAYER   1   ROW    10   COL     3   RATE     656.667    
 BOUNDARY    139   LAYER   1   ROW    10   COL     4   RATE     656.667    
 BOUNDARY    140   LAYER   1   ROW    10   COL     5   RATE     656.667    
 BOUNDARY    141   LAYER   1   ROW    10   COL     6   RATE     656.667    
 BOUNDARY    142   LAYER   1   ROW    10   COL     7   RATE     656.667    
 BOUNDARY    143   LAYER   1   ROW    10   COL     8   RATE     656.667    
 BOUNDARY    144   LAYER   1   ROW    10   COL     9   RATE     656.667    
 BOUNDARY    145   LAYER   1   ROW    10   COL    10   RATE     656.667    
 BOUNDARY    146   LAYER   1   ROW    10   COL    11   RATE     656.667    
 BOUNDARY    147   LAYER   1   ROW    10   COL    12   RATE     656.667    
 BOUNDARY    148   LAYER   1   ROW    10   COL    13   RATE     656.667    
 BOUNDARY    149   LAYER   1   ROW    10   COL    14   RATE     656.667    
 BOUNDARY    150   LAYER   1   ROW    10   COL    15   RATE     656.667    
 UBDSV4 SAVING ET SEGS          ON UNIT   1016 AT TIME STEP     10, STRESS PERIOD      4

 ET SEGS            PERIOD  4   STEP 10
 BOUNDARY      1   LAYER   1   ROW     1   COL     1   RATE    -2.25677    
 BOUNDARY      2   LAYER   1   ROW     1   COL     2   RATE    -8.53395    
 BOUNDARY      3   LAYER   1   ROW     1   COL     3   RATE    -50.4323    
 BOUNDARY      4   LAYER   1   ROW     1   COL     4   RATE    -91.4583    
 BOUNDARY      5   LAYER   1   ROW     1   COL     5   RATE    -91.4583    
 BOUNDARY      6   LAYER   1   ROW     1   COL     6   RATE    -91.4583    
 BOUNDARY      7   LAYER   1   ROW     1   COL     7   RATE    -91.4583    
 BOUNDARY      8   LAYER   1   ROW     1   COL     8   RATE    -91.4583    
 BOUNDARY      9   LAYER   1   ROW     1   COL     9   RATE    -91.4583    
 BOUNDARY     10   LAYER   1   ROW     1   COL    10   RATE    -91.4583    
 BOUNDARY     11   LAYER   1   ROW     1   COL    11   RATE    -91.4583    
 BOUNDARY     12   LAYER   1   ROW     1   COL    12   RATE    -16.4526    
 BOUNDARY     13   LAYER   1   ROW     1   COL    13   RATE     0.00000    
 BOUNDARY     14   LAYER   1   ROW     1   COL    14   RATE     0.00000    
 BOUNDARY     15   LAYER   1   ROW     1   COL    15   RATE     0.00000    
 BOUNDARY     16   LAYER   1   ROW     2   COL     1   RATE     0.00000    
 BOUNDARY     17   LAYER   1   ROW     2   COL     2   RATE    -4.39036    
 BOUNDARY     18   LAYER   1   ROW     2   COL     3   RATE    -26.8222    
 BOUNDARY     19   LAYER   1   ROW     2   COL     4   RATE    -91.4583    
 BOUNDARY     20   LAYER   1   ROW     2   COL     5   RATE    -91.4583    
 BOUNDARY     21   LAYER   1   ROW     2   COL     6   RATE    -91.4583    
 BOUNDARY     22   LAYER   1   ROW     2   COL     7   RATE    -91.4583    
 BOUNDARY     23   LAYER   1   ROW     2   COL     8   RATE    -91.4583    
 BOUNDARY     24   LAYER   1   ROW     2   COL     9   RATE    -91.4583    
 BOUNDARY     25   LAYER   1   ROW     2   COL    10   RATE    -91.4583    
 BOUNDARY     26   LAYER   1   ROW     2   COL    11   RATE    -91.4583    
 BOUNDARY     27   LAYER   1   ROW     2   COL    12   RATE    -18.0465    
 BOUNDARY     28   LAYER   1   ROW     2   COL    13   RATE   -0.414965    
 BOUNDARY     29   LAYER   1   ROW     2   COL    14   RATE     0.00000    
 BOUNDARY     30   LAYER   1   ROW     2   COL    15   RATE     0.00000    
 BOUNDARY     31   LAYER   1   ROW     3   COL     1   RATE     0.00000    
 BOUNDARY     32   LAYER   1   ROW     3   COL     2   RATE     0.00000    
 BOUNDARY     33   LAYER   1   ROW     3   COL     3   RATE    -21.4150    
 BOUNDARY     34   LAYER   1   ROW     3   COL     4   RATE    -91.4583    
 BOUNDARY     35   LAYER   1   ROW     3   COL     5   RATE    -91.4583    
 BOUNDARY     36   LAYER   1   ROW     3   COL     6   RATE    -91.4583    
 BOUNDARY     37   LAYER   1   ROW     3   COL     7   RATE    -91.4583    
 BOUNDARY     38   LAYER   1   ROW     3   COL     8   RATE    -91.4583    
 BOUNDARY     39   LAYER   1   ROW     3   COL     9   RATE    -91.4583    
 BOUNDARY     40   LAYER   1   ROW     3   COL    10   RATE    -91.4583    
 BOUNDARY     41   LAYER   1   ROW     3   COL    11   RATE    -91.4583    
 BOUNDARY     42   LAYER   1   ROW     3   COL    12   RATE    -20.7349    
 BOUNDARY     43   LAYER   1   ROW     3   COL    13   RATE    -2.05467    
 BOUNDARY     44   LAYER   1   ROW     3   COL    14   RATE     0.00000    
 BOUNDARY     45   LAYER   1   ROW     3   COL    15   RATE     0.00000    
 BOUNDARY     46   LAYER   1   ROW     4   COL     1   RATE     0.00000    
 BOUNDARY     47   LAYER   1   ROW     4   COL     2   RATE    -3.01350    
 BOUNDARY     48   LAYER   1   ROW     4   COL     3   RATE    -24.9844    
 BOUNDARY     49   LAYER   1   ROW     4   COL     4   RATE    -91.4583    
 BOUNDARY     50   LAYER   1   ROW     4   COL     5   RATE    -91.4583    
 BOUNDARY     51   LAYER   1   ROW     4   COL     6   RATE    -91.4583    
 BOUNDARY     52   LAYER   1   ROW     4   COL     7   RATE    -91.4583    
 BOUNDARY     53   LAYER   1   ROW     4   COL     8   RATE    -91.4583    
 BOUNDARY     54   LAYER   1   ROW     4   COL     9   RATE    -91.4583    
 BOUNDARY     55   LAYER   1   ROW     4   COL    10   RATE    -91.4583    
 BOUNDARY     56   LAYER   1   ROW     4   COL    11   RATE    -91.4583    
 BOUNDARY     57   LAYER   1   ROW     4   COL    12   RATE    -23.2930    
 BOUNDARY     58   LAYER   1   ROW     4   COL    13   RATE    -3.38625    
 BOUNDARY     59   LAYER   1   ROW     4   COL    14   RATE     0.00000    
 BOUNDARY     60   LAYER   1   ROW     4   COL    15   RATE     0.00000    
 BOUNDARY     61   LAYER   1   ROW     5   COL     1   RATE     0.00000    
 BOUNDARY     62   LAYER   1   ROW     5   COL     2   RATE    -5.73772    
 BOUNDARY     63   LAYER   1   ROW     5   COL     3   RATE    -33.7004    
 BOUNDARY     64   LAYER   1   ROW     5   COL     4   RATE    -91.4583    
 BOUNDARY     65   LAYER   1   ROW     5   COL     5   RATE    -91.4583    
 BOUNDARY     66   LAYER   1   ROW     5   COL     6   RATE    -91.4583    
 BOUNDARY     67   LAYER   1   ROW     5   COL     7   RATE    -91.4583    
 BOUNDARY     68   LAYER   1   ROW     5   COL     8   RATE    -91.4583    
 BOUNDARY     69   LAYER   1   ROW     5   COL     9   RATE    -91.4583    
 BOUNDARY     70   LAYER   1   ROW     5   COL    10   RATE    -91.4583    
 BOUNDARY     71   LAYER   1   ROW     5   COL    11   RATE    -91.4583    
 BOUNDARY     72   LAYER   1   ROW     5   COL    12   RATE    -25.0556    
 BOUNDARY     73   LAYER   1   ROW     5   COL    13   RATE    -4.20196    
 BOUNDARY     74   LAYER   1   ROW     5   COL    14   RATE     0.00000    
 BOUNDARY     75   LAYER   1   ROW     5   COL    15   RATE     0.00000    
 BOUNDARY     76   LAYER   1   ROW     6   COL     1   RATE     0.00000    
 BOUNDARY     77   LAYER   1   ROW     6   COL     2   RATE    -4.42565    
 BOUNDARY     78   LAYER   1   ROW     6   COL     3   RATE    -37.2498    
 BOUNDARY     79   LAYER   1   ROW     6   COL     4   RATE    -91.4583    
 BOUNDARY     80   LAYER   1   ROW     6   COL     5   RATE    -91.4583    
 BOUNDARY     81   LAYER   1   ROW     6   COL     6   RATE    -91.4583    
 BOUNDARY     82   LAYER   1   ROW     6   COL     7   RATE    -91.4583    
 BOUNDARY     83   LAYER   1   ROW     6   COL     8   RATE    -91.4583    
 BOUNDARY     84   LAYER   1   ROW     6   COL     9   RATE    -91.4583    
 BOUNDARY     85   LAYER   1   ROW     6   COL    10   RATE    -91.4583    
 BOUNDARY     86   LAYER   1   ROW     6   COL    11   RATE    -91.4583    
 BOUNDARY     87   LAYER   1   ROW     6   COL    12   RATE    -25.6477    
 BOUNDARY     88   LAYER   1   ROW     6   COL    13   RATE    -4.16017    
 BOUNDARY     89   LAYER   1   ROW     6   COL    14   RATE     0.00000    
 BOUNDARY     90   LAYER   1   ROW     6   COL    15   RATE     0.00000    
 BOUNDARY     91   LAYER   1   ROW     7   COL     1   RATE     0.00000    
 BOUNDARY     92   LAYER   1   ROW     7   COL     2   RATE    -1.21364    
 BOUNDARY     93   LAYER   1   ROW     7   COL     3   RATE    -43.6307    
 BOUNDARY     94   LAYER   1   ROW     7   COL     4   RATE    -91.4583    
 BOUNDARY     95   LAYER   1   ROW     7   COL     5   RATE    -91.4583    
 BOUNDARY     96   LAYER   1   ROW     7   COL     6   RATE    -91.4583    
 BOUNDARY     97   LAYER   1   ROW     7   COL     7   RATE    -91.4583    
 BOUNDARY     98   LAYER   1   ROW     7   COL     8   RATE    -91.4583    
 BOUNDARY     99   LAYER   1   ROW     7   COL     9   RATE    -91.4583    
 BOUNDARY    100   LAYER   1   ROW     7   COL    10   RATE    -91.4583    
 BOUNDARY    101   LAYER   1   ROW     7   COL    11   RATE    -91.4583    
 BOUNDARY    102   LAYER   1   ROW     7   COL    12   RATE    -25.5082    
 BOUNDARY    103   LAYER   1   ROW     7   COL    13   RATE    -3.49936    
 BOUNDARY    104   LAYER   1   ROW     7   COL    14   RATE     0.00000    
 BOUNDARY    105   LAYER   1   ROW     7   COL    15   RATE     0.00000    
 BOUNDARY    106   LAYER   1   ROW     8   COL     1   RATE     0.00000    
 BOUNDARY    107   LAYER   1   ROW     8   COL     2   RATE    -11.3449    
 BOUNDARY    108   LAYER   1   ROW     8   COL     3   RATE    -91.4583    
 BOUNDARY    109   LAYER   1   ROW     8   COL     4   RATE    -91.4583    
 BOUNDARY    110   LAYER   1   ROW     8   COL     5   RATE    -91.4583    
 BOUNDARY    111   LAYER   1   ROW     8   COL     6   RATE    -91.4583    
 BOUNDARY    112   LAYER   1   ROW     8   COL     7   RATE    -91.4583    
 BOUNDARY    113   LAYER   1   ROW     8   COL     8   RATE    -91.4583    
 BOUNDARY    114   LAYER   1   ROW     8   COL     9   RATE    -91.4583    
 BOUNDARY    115   LAYER   1   ROW     8   COL    10   RATE    -91.4583    
 BOUNDARY    116   LAYER   1   ROW     8   COL    11   RATE    -91.4583    
 BOUNDARY    117   LAYER   1   ROW     8   COL    12   RATE    -25.8770    
 BOUNDARY    118   LAYER   1   ROW     8   COL    13   RATE    -3.51789    
 BOUNDARY    119   LAYER   1   ROW     8   COL    14   RATE     0.00000    
 BOUNDARY    120   LAYER   1   ROW     8   COL    15   RATE     0.00000    
 BOUNDARY    121   LAYER   1   ROW     9   COL     1   RATE    -18.2917    
 BOUNDARY    122   LAYER   1   ROW     9   COL     2   RATE    -61.2367    
 BOUNDARY    123   LAYER   1   ROW     9   COL     3   RATE    -91.4583    
 BOUNDARY    124   LAYER   1   ROW     9   COL     4   RATE    -91.4583    
 BOUNDARY    125   LAYER   1   ROW     9   COL     5   RATE    -91.4583    
 BOUNDARY    126   LAYER   1   ROW     9   COL     6   RATE    -91.4583    
 BOUNDARY    127   LAYER   1   ROW     9   COL     7   RATE    -91.4583    
 BOUNDARY    128   LAYER   1   ROW     9   COL     8   RATE    -91.4583    
 BOUNDARY    129   LAYER   1   ROW     9   COL     9   RATE    -91.4583    
 BOUNDARY    130   LAYER   1   ROW     9   COL    10   RATE    -91.4583    
 BOUNDARY    131   LAYER   1   ROW     9   COL    11   RATE    -91.4583    
 BOUNDARY    132   LAYER   1   ROW     9   COL    12   RATE    -26.9002    
 BOUNDARY    133   LAYER   1   ROW     9   COL    13   RATE    -4.29129    
 BOUNDARY    134   LAYER   1   ROW     9   COL    14   RATE     0.00000    
 BOUNDARY    135   LAYER   1   ROW     9   COL    15   RATE     0.00000    
 BOUNDARY    136   LAYER   1   ROW    10   COL     1   RATE    -68.7695    
 BOUNDARY    137   LAYER   1   ROW    10   COL     2   RATE    -91.4583    
 BOUNDARY    138   LAYER   1   ROW    10   COL     3   RATE    -91.4583    
 BOUNDARY    139   LAYER   1   ROW    10   COL     4   RATE    -91.4583    
 BOUNDARY    140   LAYER   1   ROW    10   COL     5   RATE    -91.4583    
 BOUNDARY    141   LAYER   1   ROW    10   COL     6   RATE    -91.4583    
 BOUNDARY    142   LAYER   1   ROW    10   COL     7   RATE    -91.4583    
 BOUNDARY    143   LAYER   1   ROW    10   COL     8   RATE    -91.4583    
 BOUNDARY    144   LAYER   1   ROW    10   COL     9   RATE    -91.4583    
 BOUNDARY    145   LAYER   1   ROW    10   COL    10   RATE    -91.4583    
 BOUNDARY    146   LAYER   1   ROW    10   COL    11   RATE    -91.4583    
 BOUNDARY    147   LAYER   1   ROW    10   COL    12   RATE    -28.4856    
 BOUNDARY    148   LAYER   1   ROW    10   COL    13   RATE    -4.78470    
 BOUNDARY    149   LAYER   1   ROW    10   COL    14   RATE     0.00000    
 BOUNDARY    150   LAYER   1   ROW    10   COL    15   RATE     0.00000    

 HEAD WILL BE SAVED ON UNIT 1017 AT END OF TIME STEP   10, STRESS PERIOD    4
WEL   no.    1 value from time series:   0.0000     for time:  70.00     to  71.00    
WEL   no.    2 value from time series:   0.0000     for time:  70.00     to  71.00    
RIV   no.    1 value from time series:   101.00     for time:  70.00     to  71.00    
RIV   no.    2 value from time series:   101.00     for time:  70.00     to  71.00    
RIV   no.    3 value from time series:   111.50     for time:  70.00     to  71.00    
RIV   no.    4 value from time series:   111.50     for time:  70.00     to  71.00    
RIV   no.    5 value from time series:   115.10     for time:  70.00     to  71.00    
RIV   no.    6 value from time series:   115.10     for time:  70.00     to  71.00    
RIV   no.    7 value from time series:   104.00     for time:  70.00     to  71.00    
RIV   no.    8 value from time series:   104.00     for time:  70.00     to  71.00    
RIV   no.    9 value from time series:   113.50     for time:  70.00     to  71.00    
RIV   no.   10 value from time series:   113.50     for time:  70.00     to  71.00    
WEL   no.    1 value from time series:   0.0000     for time:  70.00     to  71.00    
WEL   no.    2 value from time series:   0.0000     for time:  70.00     to  71.00    
RIV   no.    1 value from time series:   101.00     for time:  70.00     to  71.00    
RIV   no.    2 value from time series:   101.00     for time:  70.00     to  71.00    
RIV   no.    3 value from time series:   111.50     for time:  70.00     to  71.00    
RIV   no.    4 value from time series:   111.50     for time:  70.00     to  71.00    
RIV   no.    5 value from time series:   115.10     for time:  70.00     to  71.00    
RIV   no.    6 value from time series:   115.10     for time:  70.00     to  71.00    
RIV   no.    7 value from time series:   104.00     for time:  70.00     to  71.00    
RIV   no.    8 value from time series:   104.00     for time:  70.00     to  71.00    
RIV   no.    9 value from time series:   113.50     for time:  70.00     to  71.00    
RIV   no.   10 value from time series:   113.50     for time:  70.00     to  71.00    

 NO OUTPUT CONTROL FOR STRESS PERIOD    4   TIME STEP   11
WEL   no.    1 value from time series:   0.0000     for time:  71.00     to  72.00    
WEL   no.    2 value from time series:   0.0000     for time:  71.00     to  72.00    
RIV   no.    1 value from time series:   101.00     for time:  71.00     to  72.00    
RIV   no.    2 value from time series:   101.00     for time:  71.00     to  72.00    
RIV   no.    3 value from time series:   111.50     for time:  71.00     to  72.00    
RIV   no.    4 value from time series:   111.50     for time:  71.00     to  72.00    
RIV   no.    5 value from time series:   115.10     for time:  71.00     to  72.00    
RIV   no.    6 value from time series:   115.10     for time:  71.00     to  72.00    
RIV   no.    7 value from time series:   104.00     for time:  71.00     to  72.00    
RIV   no.    8 value from time series:   104.00     for time:  71.00     to  72.00    
RIV   no.    9 value from time series:   113.50     for time:  71.00     to  72.00    
RIV   no.   10 value from time series:   113.50     for time:  71.00     to  72.00    
WEL   no.    1 value from time series:   0.0000     for time:  71.00     to  72.00    
WEL   no.    2 value from time series:   0.0000     for time:  71.00     to  72.00    
RIV   no.    1 value from time series:   101.00     for time:  71.00     to  72.00    
RIV   no.    2 value from time series:   101.00     for time:  71.00     to  72.00    
RIV   no.    3 value from time series:   111.50     for time:  71.00     to  72.00    
RIV   no.    4 value from time series:   111.50     for time:  71.00     to  72.00    
RIV   no.    5 value from time series:   115.10     for time:  71.00     to  72.00    
RIV   no.    6 value from time series:   115.10     for time:  71.00     to  72.00    
RIV   no.    7 value from time series:   104.00     for time:  71.00     to  72.00    
RIV   no.    8 value from time series:   104.00     for time:  71.00     to  72.00    
RIV   no.    9 value from time series:   113.50     for time:  71.00     to  72.00    
RIV   no.   10 value from time series:   113.50     for time:  71.00     to  72.00    

 NO OUTPUT CONTROL FOR STRESS PERIOD    4   TIME STEP   12
WEL   no.    1 value from time series:   0.0000     for time:  72.00     to  73.00    
WEL   no.    2 value from time series:   0.0000     for time:  72.00     to  73.00    
RIV   no.    1 value from time series:   101.00     for time:  72.00     to  73.00    
RIV   no.    2 value from time series:   101.00     for time:  72.00     to  73.00    
RIV   no.    3 value from time series:   111.50     for time:  72.00     to  73.00    
RIV   no.    4 value from time series:   111.50     for time:  72.00     to  73.00    
RIV   no.    5 value from time series:   115.10     for time:  72.00     to  73.00    
RIV   no.    6 value from time series:   115.10     for time:  72.00     to  73.00    
RIV   no.    7 value from time series:   104.00     for time:  72.00     to  73.00    
RIV   no.    8 value from time series:   104.00     for time:  72.00     to  73.00    
RIV   no.    9 value from time series:   113.50     for time:  72.00     to  73.00    
RIV   no.   10 value from time series:   113.50     for time:  72.00     to  73.00    
WEL   no.    1 value from time series:   0.0000     for time:  72.00     to  73.00    
WEL   no.    2 value from time series:   0.0000     for time:  72.00     to  73.00    
RIV   no.    1 value from time series:   101.00     for time:  72.00     to  73.00    
RIV   no.    2 value from time series:   101.00     for time:  72.00     to  73.00    
RIV   no.    3 value from time series:   111.50     for time:  72.00     to  73.00    
RIV   no.    4 value from time series:   111.50     for time:  72.00     to  73.00    
RIV   no.    5 value from time series:   115.10     for time:  72.00     to  73.00    
RIV   no.    6 value from time series:   115.10     for time:  72.00     to  73.00    
RIV   no.    7 value from time series:   104.00     for time:  72.00     to  73.00    
RIV   no.    8 value from time series:   104.00     for time:  72.00     to  73.00    
RIV   no.    9 value from time series:   113.50     for time:  72.00     to  73.00    
RIV   no.   10 value from time series:   113.50     for time:  72.00     to  73.00    

 NO OUTPUT CONTROL FOR STRESS PERIOD    4   TIME STEP   13
WEL   no.    1 value from time series:   0.0000     for time:  73.00     to  74.00    
WEL   no.    2 value from time series:   0.0000     for time:  73.00     to  74.00    
RIV   no.    1 value from time series:   101.00     for time:  73.00     to  74.00    
RIV   no.    2 value from time series:   101.00     for time:  73.00     to  74.00    
RIV   no.    3 value from time series:   111.50     for time:  73.00     to  74.00    
RIV   no.    4 value from time series:   111.50     for time:  73.00     to  74.00    
RIV   no.    5 value from time series:   115.10     for time:  73.00     to  74.00    
RIV   no.    6 value from time series:   115.10     for time:  73.00     to  74.00    
RIV   no.    7 value from time series:   104.00     for time:  73.00     to  74.00    
RIV   no.    8 value from time series:   104.00     for time:  73.00     to  74.00    
RIV   no.    9 value from time series:   113.50     for time:  73.00     to  74.00    
RIV   no.   10 value from time series:   113.50     for time:  73.00     to  74.00    
WEL   no.    1 value from time series:   0.0000     for time:  73.00     to  74.00    
WEL   no.    2 value from time series:   0.0000     for time:  73.00     to  74.00    
RIV   no.    1 value from time series:   101.00     for time:  73.00     to  74.00    
RIV   no.    2 value from time series:   101.00     for time:  73.00     to  74.00    
RIV   no.    3 value from time series:   111.50     for time:  73.00     to  74.00    
RIV   no.    4 value from time series:   111.50     for time:  73.00     to  74.00    
RIV   no.    5 value from time series:   115.10     for time:  73.00     to  74.00    
RIV   no.    6 value from time series:   115.10     for time:  73.00     to  74.00    
RIV   no.    7 value from time series:   104.00     for time:  73.00     to  74.00    
RIV   no.    8 value from time series:   104.00     for time:  73.00     to  74.00    
RIV   no.    9 value from time series:   113.50     for time:  73.00     to  74.00    
RIV   no.   10 value from time series:   113.50     for time:  73.00     to  74.00    

 NO OUTPUT CONTROL FOR STRESS PERIOD    4   TIME STEP   14
WEL   no.    1 value from time series:   0.0000     for time:  74.00     to  75.00    
WEL   no.    2 value from time series:   0.0000     for time:  74.00     to  75.00    
RIV   no.    1 value from time series:   101.00     for time:  74.00     to  75.00    
RIV   no.    2 value from time series:   101.00     for time:  74.00     to  75.00    
RIV   no.    3 value from time series:   111.50     for time:  74.00     to  75.00    
RIV   no.    4 value from time series:   111.50     for time:  74.00     to  75.00    
RIV   no.    5 value from time series:   115.10     for time:  74.00     to  75.00    
RIV   no.    6 value from time series:   115.10     for time:  74.00     to  75.00    
RIV   no.    7 value from time series:   104.00     for time:  74.00     to  75.00    
RIV   no.    8 value from time series:   104.00     for time:  74.00     to  75.00    
RIV   no.    9 value from time series:   113.50     for time:  74.00     to  75.00    
RIV   no.   10 value from time series:   113.50     for time:  74.00     to  75.00    
WEL   no.    1 value from time series:   0.0000     for time:  74.00     to  75.00    
WEL   no.    2 value from time series:   0.0000     for time:  74.00     to  75.00    
RIV   no.    1 value from time series:   101.00     for time:  74.00     to  75.00    
RIV   no.    2 value from time series:   101.00     for time:  74.00     to  75.00    
RIV   no.    3 value from time series:   111.50     for time:  74.00     to  75.00    
RIV   no.    4 value from time series:   111.50     for time:  74.00     to  75.00    
RIV   no.    5 value from time series:   115.10     for time:  74.00     to  75.00    
RIV   no.    6 value from time series:   115.10     for time:  74.00     to  75.00    
RIV   no.    7 value from time series:   104.00     for time:  74.00     to  75.00    
RIV   no.    8 value from time series:   104.00     for time:  74.00     to  75.00    
RIV   no.    9 value from time series:   113.50     for time:  74.00     to  75.00    
RIV   no.   10 value from time series:   113.50     for time:  74.00     to  75.00    

 NO OUTPUT CONTROL FOR STRESS PERIOD    4   TIME STEP   15
WEL   no.    1 value from time series:   0.0000     for time:  75.00     to  76.00    
WEL   no.    2 value from time series:   0.0000     for time:  75.00     to  76.00    
RIV   no.    1 value from time series:   101.00     for time:  75.00     to  76.00    
RIV   no.    2 value from time series:   101.00     for time:  75.00     to  76.00    
RIV   no.    3 value from time series:   111.50     for time:  75.00     to  76.00    
RIV   no.    4 value from time series:   111.50     for time:  75.00     to  76.00    
RIV   no.    5 value from time series:   115.10     for time:  75.00     to  76.00    
RIV   no.    6 value from time series:   115.10     for time:  75.00     to  76.00    
RIV   no.    7 value from time series:   104.00     for time:  75.00     to  76.00    
RIV   no.    8 value from time series:   104.00     for time:  75.00     to  76.00    
RIV   no.    9 value from time series:   113.50     for time:  75.00     to  76.00    
RIV   no.   10 value from time series:   113.50     for time:  75.00     to  76.00    
WEL   no.    1 value from time series:   0.0000     for time:  75.00     to  76.00    
WEL   no.    2 value from time series:   0.0000     for time:  75.00     to  76.00    
RIV   no.    1 value from time series:   101.00     for time:  75.00     to  76.00    
RIV   no.    2 value from time series:   101.00     for time:  75.00     to  76.00    
RIV   no.    3 value from time series:   111.50     for time:  75.00     to  76.00    
RIV   no.    4 value from time series:   111.50     for time:  75.00     to  76.00    
RIV   no.    5 value from time series:   115.10     for time:  75.00     to  76.00    
RIV   no.    6 value from time series:   115.10     for time:  75.00     to  76.00    
RIV   no.    7 value from time series:   104.00     for time:  75.00     to  76.00    
RIV   no.    8 value from time series:   104.00     for time:  75.00     to  76.00    
RIV   no.    9 value from time series:   113.50     for time:  75.00     to  76.00    
RIV   no.   10 value from time series:   113.50     for time:  75.00     to  76.00    

 NO OUTPUT CONTROL FOR STRESS PERIOD    4   TIME STEP   16
WEL   no.    1 value from time series:   0.0000     for time:  76.00     to  77.00    
WEL   no.    2 value from time series:   0.0000     for time:  76.00     to  77.00    
RIV   no.    1 value from time series:   101.00     for time:  76.00     to  77.00    
RIV   no.    2 value from time series:   101.00     for time:  76.00     to  77.00    
RIV   no.    3 value from time series:   111.50     for time:  76.00     to  77.00    
RIV   no.    4 value from time series:   111.50     for time:  76.00     to  77.00    
RIV   no.    5 value from time series:   115.10     for time:  76.00     to  77.00    
RIV   no.    6 value from time series:   115.10     for time:  76.00     to  77.00    
RIV   no.    7 value from time series:   104.00     for time:  76.00     to  77.00    
RIV   no.    8 value from time series:   104.00     for time:  76.00     to  77.00    
RIV   no.    9 value from time series:   113.50     for time:  76.00     to  77.00    
RIV   no.   10 value from time series:   113.50     for time:  76.00     to  77.00    
WEL   no.    1 value from time series:   0.0000     for time:  76.00     to  77.00    
WEL   no.    2 value from time series:   0.0000     for time:  76.00     to  77.00    
RIV   no.    1 value from time series:   101.00     for time:  76.00     to  77.00    
RIV   no.    2 value from time series:   101.00     for time:  76.00     to  77.00    
RIV   no.    3 value from time series:   111.50     for time:  76.00     to  77.00    
RIV   no.    4 value from time series:   111.50     for time:  76.00     to  77.00    
RIV   no.    5 value from time series:   115.10     for time:  76.00     to  77.00    
RIV   no.    6 value from time series:   115.10     for time:  76.00     to  77.00    
RIV   no.    7 value from time series:   104.00     for time:  76.00     to  77.00    
RIV   no.    8 value from time series:   104.00     for time:  76.00     to  77.00    
RIV   no.    9 value from time series:   113.50     for time:  76.00     to  77.00    
RIV   no.   10 value from time series:   113.50     for time:  76.00     to  77.00    

 NO OUTPUT CONTROL FOR STRESS PERIOD    4   TIME STEP   17
WEL   no.    1 value from time series:   0.0000     for time:  77.00     to  78.00    
WEL   no.    2 value from time series:   0.0000     for time:  77.00     to  78.00    
RIV   no.    1 value from time series:   101.00     for time:  77.00     to  78.00    
RIV   no.    2 value from time series:   101.00     for time:  77.00     to  78.00    
RIV   no.    3 value from time series:   111.50     for time:  77.00     to  78.00    
RIV   no.    4 value from time series:   111.50     for time:  77.00     to  78.00    
RIV   no.    5 value from time series:   115.10     for time:  77.00     to  78.00    
RIV   no.    6 value from time series:   115.10     for time:  77.00     to  78.00    
RIV   no.    7 value from time series:   104.00     for time:  77.00     to  78.00    
RIV   no.    8 value from time series:   104.00     for time:  77.00     to  78.00    
RIV   no.    9 value from time series:   113.50     for time:  77.00     to  78.00    
RIV   no.   10 value from time series:   113.50     for time:  77.00     to  78.00    
WEL   no.    1 value from time series:   0.0000     for time:  77.00     to  78.00    
WEL   no.    2 value from time series:   0.0000     for time:  77.00     to  78.00    
RIV   no.    1 value from time series:   101.00     for time:  77.00     to  78.00    
RIV   no.    2 value from time series:   101.00     for time:  77.00     to  78.00    
RIV   no.    3 value from time series:   111.50     for time:  77.00     to  78.00    
RIV   no.    4 value from time series:   111.50     for time:  77.00     to  78.00    
RIV   no.    5 value from time series:   115.10     for time:  77.00     to  78.00    
RIV   no.    6 value from time series:   115.10     for time:  77.00     to  78.00    
RIV   no.    7 value from time series:   104.00     for time:  77.00     to  78.00    
RIV   no.    8 value from time series:   104.00     for time:  77.00     to  78.00    
RIV   no.    9 value from time series:   113.50     for time:  77.00     to  78.00    
RIV   no.   10 value from time series:   113.50     for time:  77.00     to  78.00    

 NO OUTPUT CONTROL FOR STRESS PERIOD    4   TIME STEP   18
WEL   no.    1 value from time series:   0.0000     for time:  78.00     to  79.00    
WEL   no.    2 value from time series:   0.0000     for time:  78.00     to  79.00    
RIV   no.    1 value from time series:   101.00     for time:  78.00     to  79.00    
RIV   no.    2 value from time series:   101.00     for time:  78.00     to  79.00    
RIV   no.    3 value from time series:   111.50     for time:  78.00     to  79.00    
RIV   no.    4 value from time series:   111.50     for time:  78.00     to  79.00    
RIV   no.    5 value from time series:   115.10     for time:  78.00     to  79.00    
RIV   no.    6 value from time series:   115.10     for time:  78.00     to  79.00    
RIV   no.    7 value from time series:   104.00     for time:  78.00     to  79.00    
RIV   no.    8 value from time series:   104.00     for time:  78.00     to  79.00    
RIV   no.    9 value from time series:   113.50     for time:  78.00     to  79.00    
RIV   no.   10 value from time series:   113.50     for time:  78.00     to  79.00    
WEL   no.    1 value from time series:   0.0000     for time:  78.00     to  79.00    
WEL   no.    2 value from time series:   0.0000     for time:  78.00     to  79.00    
RIV   no.    1 value from time series:   101.00     for time:  78.00     to  79.00    
RIV   no.    2 value from time series:   101.00     for time:  78.00     to  79.00    
RIV   no.    3 value from time series:   111.50     for time:  78.00     to  79.00    
RIV   no.    4 value from time series:   111.50     for time:  78.00     to  79.00    
RIV   no.    5 value from time series:   115.10     for time:  78.00     to  79.00    
RIV   no.    6 value from time series:   115.10     for time:  78.00     to  79.00    
RIV   no.    7 value from time series:   104.00     for time:  78.00     to  79.00    
RIV   no.    8 value from time series:   104.00     for time:  78.00     to  79.00    
RIV   no.    9 value from time series:   113.50     for time:  78.00     to  79.00    
RIV   no.   10 value from time series:   113.50     for time:  78.00     to  79.00    

 NO OUTPUT CONTROL FOR STRESS PERIOD    4   TIME STEP   19
WEL   no.    1 value from time series:   0.0000     for time:  79.00     to  80.00    
WEL   no.    2 value from time series:   0.0000     for time:  79.00     to  80.00    
RIV   no.    1 value from time series:   101.00     for time:  79.00     to  80.00    
RIV   no.    2 value from time series:   101.00     for time:  79.00     to  80.00    
RIV   no.    3 value from time series:   111.50     for time:  79.00     to  80.00    
RIV   no.    4 value from time series:   111.50     for time:  79.00     to  80.00    
RIV   no.    5 value from time series:   115.10     for time:  79.00     to  80.00    
RIV   no.    6 value from time series:   115.10     for time:  79.00     to  80.00    
RIV   no.    7 value from time series:   104.00     for time:  79.00     to  80.00    
RIV   no.    8 value from time series:   104.00     for time:  79.00     to  80.00    
RIV   no.    9 value from time series:   113.50     for time:  79.00     to  80.00    
RIV   no.   10 value from time series:   113.50     for time:  79.00     to  80.00    
WEL   no.    1 value from time series:   0.0000     for time:  79.00     to  80.00    
WEL   no.    2 value from time series:   0.0000     for time:  79.00     to  80.00    
RIV   no.    1 value from time series:   101.00     for time:  79.00     to  80.00    
RIV   no.    2 value from time series:   101.00     for time:  79.00     to  80.00    
RIV   no.    3 value from time series:   111.50     for time:  79.00     to  80.00    
RIV   no.    4 value from time series:   111.50     for time:  79.00     to  80.00    
RIV   no.    5 value from time series:   115.10     for time:  79.00     to  80.00    
RIV   no.    6 value from time series:   115.10     for time:  79.00     to  80.00    
RIV   no.    7 value from time series:   104.00     for time:  79.00     to  80.00    
RIV   no.    8 value from time series:   104.00     for time:  79.00     to  80.00    
RIV   no.    9 value from time series:   113.50     for time:  79.00     to  80.00    
RIV   no.   10 value from time series:   113.50     for time:  79.00     to  80.00    

 NO OUTPUT CONTROL FOR STRESS PERIOD    4   TIME STEP   20
WEL   no.    1 value from time series:   0.0000     for time:  80.00     to  81.00    
WEL   no.    2 value from time series:   0.0000     for time:  80.00     to  81.00    
RIV   no.    1 value from time series:   101.00     for time:  80.00     to  81.00    
RIV   no.    2 value from time series:   101.00     for time:  80.00     to  81.00    
RIV   no.    3 value from time series:   111.50     for time:  80.00     to  81.00    
RIV   no.    4 value from time series:   111.50     for time:  80.00     to  81.00    
RIV   no.    5 value from time series:   115.10     for time:  80.00     to  81.00    
RIV   no.    6 value from time series:   115.10     for time:  80.00     to  81.00    
RIV   no.    7 value from time series:   104.00     for time:  80.00     to  81.00    
RIV   no.    8 value from time series:   104.00     for time:  80.00     to  81.00    
RIV   no.    9 value from time series:   113.50     for time:  80.00     to  81.00    
RIV   no.   10 value from time series:   113.50     for time:  80.00     to  81.00    
WEL   no.    1 value from time series:   0.0000     for time:  80.00     to  81.00    
WEL   no.    2 value from time series:   0.0000     for time:  80.00     to  81.00    
RIV   no.    1 value from time series:   101.00     for time:  80.00     to  81.00    
RIV   no.    2 value from time series:   101.00     for time:  80.00     to  81.00    
RIV   no.    3 value from time series:   111.50     for time:  80.00     to  81.00    
RIV   no.    4 value from time series:   111.50     for time:  80.00     to  81.00    
RIV   no.    5 value from time series:   115.10     for time:  80.00     to  81.00    
RIV   no.    6 value from time series:   115.10     for time:  80.00     to  81.00    
RIV   no.    7 value from time series:   104.00     for time:  80.00     to  81.00    
RIV   no.    8 value from time series:   104.00     for time:  80.00     to  81.00    
RIV   no.    9 value from time series:   113.50     for time:  80.00     to  81.00    
RIV   no.   10 value from time series:   113.50     for time:  80.00     to  81.00    

 NO OUTPUT CONTROL FOR STRESS PERIOD    4   TIME STEP   21
WEL   no.    1 value from time series:   0.0000     for time:  81.00     to  82.00    
WEL   no.    2 value from time series:   0.0000     for time:  81.00     to  82.00    
RIV   no.    1 value from time series:   101.00     for time:  81.00     to  82.00    
RIV   no.    2 value from time series:   101.00     for time:  81.00     to  82.00    
RIV   no.    3 value from time series:   111.50     for time:  81.00     to  82.00    
RIV   no.    4 value from time series:   111.50     for time:  81.00     to  82.00    
RIV   no.    5 value from time series:   115.10     for time:  81.00     to  82.00    
RIV   no.    6 value from time series:   115.10     for time:  81.00     to  82.00    
RIV   no.    7 value from time series:   104.00     for time:  81.00     to  82.00    
RIV   no.    8 value from time series:   104.00     for time:  81.00     to  82.00    
RIV   no.    9 value from time series:   113.50     for time:  81.00     to  82.00    
RIV   no.   10 value from time series:   113.50     for time:  81.00     to  82.00    
WEL   no.    1 value from time series:   0.0000     for time:  81.00     to  82.00    
WEL   no.    2 value from time series:   0.0000     for time:  81.00     to  82.00    
RIV   no.    1 value from time series:   101.00     for time:  81.00     to  82.00    
RIV   no.    2 value from time series:   101.00     for time:  81.00     to  82.00    
RIV   no.    3 value from time series:   111.50     for time:  81.00     to  82.00    
RIV   no.    4 value from time series:   111.50     for time:  81.00     to  82.00    
RIV   no.    5 value from time series:   115.10     for time:  81.00     to  82.00    
RIV   no.    6 value from time series:   115.10     for time:  81.00     to  82.00    
RIV   no.    7 value from time series:   104.00     for time:  81.00     to  82.00    
RIV   no.    8 value from time series:   104.00     for time:  81.00     to  82.00    
RIV   no.    9 value from time series:   113.50     for time:  81.00     to  82.00    
RIV   no.   10 value from time series:   113.50     for time:  81.00     to  82.00    

 NO OUTPUT CONTROL FOR STRESS PERIOD    4   TIME STEP   22
WEL   no.    1 value from time series:   0.0000     for time:  82.00     to  83.00    
WEL   no.    2 value from time series:   0.0000     for time:  82.00     to  83.00    
RIV   no.    1 value from time series:   101.00     for time:  82.00     to  83.00    
RIV   no.    2 value from time series:   101.00     for time:  82.00     to  83.00    
RIV   no.    3 value from time series:   111.50     for time:  82.00     to  83.00    
RIV   no.    4 value from time series:   111.50     for time:  82.00     to  83.00    
RIV   no.    5 value from time series:   115.10     for time:  82.00     to  83.00    
RIV   no.    6 value from time series:   115.10     for time:  82.00     to  83.00    
RIV   no.    7 value from time series:   104.00     for time:  82.00     to  83.00    
RIV   no.    8 value from time series:   104.00     for time:  82.00     to  83.00    
RIV   no.    9 value from time series:   113.50     for time:  82.00     to  83.00    
RIV   no.   10 value from time series:   113.50     for time:  82.00     to  83.00    
WEL   no.    1 value from time series:   0.0000     for time:  82.00     to  83.00    
WEL   no.    2 value from time series:   0.0000     for time:  82.00     to  83.00    
RIV   no.    1 value from time series:   101.00     for time:  82.00     to  83.00    
RIV   no.    2 value from time series:   101.00     for time:  82.00     to  83.00    
RIV   no.    3 value from time series:   111.50     for time:  82.00     to  83.00    
RIV   no.    4 value from time series:   111.50     for time:  82.00     to  83.00    
RIV   no.    5 value from time series:   115.10     for time:  82.00     to  83.00    
RIV   no.    6 value from time series:   115.10     for time:  82.00     to  83.00    
RIV   no.    7 value from time series:   104.00     for time:  82.00     to  83.00    
RIV   no.    8 value from time series:   104.00     for time:  82.00     to  83.00    
RIV   no.    9 value from time series:   113.50     for time:  82.00     to  83.00    
RIV   no.   10 value from time series:   113.50     for time:  82.00     to  83.00    

 NO OUTPUT CONTROL FOR STRESS PERIOD    4   TIME STEP   23
WEL   no.    1 value from time series:   0.0000     for time:  83.00     to  84.00    
WEL   no.    2 value from time series:   0.0000     for time:  83.00     to  84.00    
RIV   no.    1 value from time series:   101.00     for time:  83.00     to  84.00    
RIV   no.    2 value from time series:   101.00     for time:  83.00     to  84.00    
RIV   no.    3 value from time series:   111.50     for time:  83.00     to  84.00    
RIV   no.    4 value from time series:   111.50     for time:  83.00     to  84.00    
RIV   no.    5 value from time series:   115.10     for time:  83.00     to  84.00    
RIV   no.    6 value from time series:   115.10     for time:  83.00     to  84.00    
RIV   no.    7 value from time series:   104.00     for time:  83.00     to  84.00    
RIV   no.    8 value from time series:   104.00     for time:  83.00     to  84.00    
RIV   no.    9 value from time series:   113.50     for time:  83.00     to  84.00    
RIV   no.   10 value from time series:   113.50     for time:  83.00     to  84.00    
WEL   no.    1 value from time series:   0.0000     for time:  83.00     to  84.00    
WEL   no.    2 value from time series:   0.0000     for time:  83.00     to  84.00    
RIV   no.    1 value from time series:   101.00     for time:  83.00     to  84.00    
RIV   no.    2 value from time series:   101.00     for time:  83.00     to  84.00    
RIV   no.    3 value from time series:   111.50     for time:  83.00     to  84.00    
RIV   no.    4 value from time series:   111.50     for time:  83.00     to  84.00    
RIV   no.    5 value from time series:   115.10     for time:  83.00     to  84.00    
RIV   no.    6 value from time series:   115.10     for time:  83.00     to  84.00    
RIV   no.    7 value from time series:   104.00     for time:  83.00     to  84.00    
RIV   no.    8 value from time series:   104.00     for time:  83.00     to  84.00    
RIV   no.    9 value from time series:   113.50     for time:  83.00     to  84.00    
RIV   no.   10 value from time series:   113.50     for time:  83.00     to  84.00    

 NO OUTPUT CONTROL FOR STRESS PERIOD    4   TIME STEP   24
WEL   no.    1 value from time series:   0.0000     for time:  84.00     to  85.00    
WEL   no.    2 value from time series:   0.0000     for time:  84.00     to  85.00    
RIV   no.    1 value from time series:   101.00     for time:  84.00     to  85.00    
RIV   no.    2 value from time series:   101.00     for time:  84.00     to  85.00    
RIV   no.    3 value from time series:   111.50     for time:  84.00     to  85.00    
RIV   no.    4 value from time series:   111.50     for time:  84.00     to  85.00    
RIV   no.    5 value from time series:   115.10     for time:  84.00     to  85.00    
RIV   no.    6 value from time series:   115.10     for time:  84.00     to  85.00    
RIV   no.    7 value from time series:   104.00     for time:  84.00     to  85.00    
RIV   no.    8 value from time series:   104.00     for time:  84.00     to  85.00    
RIV   no.    9 value from time series:   113.50     for time:  84.00     to  85.00    
RIV   no.   10 value from time series:   113.50     for time:  84.00     to  85.00    
WEL   no.    1 value from time series:   0.0000     for time:  84.00     to  85.00    
WEL   no.    2 value from time series:   0.0000     for time:  84.00     to  85.00    
RIV   no.    1 value from time series:   101.00     for time:  84.00     to  85.00    
RIV   no.    2 value from time series:   101.00     for time:  84.00     to  85.00    
RIV   no.    3 value from time series:   111.50     for time:  84.00     to  85.00    
RIV   no.    4 value from time series:   111.50     for time:  84.00     to  85.00    
RIV   no.    5 value from time series:   115.10     for time:  84.00     to  85.00    
RIV   no.    6 value from time series:   115.10     for time:  84.00     to  85.00    
RIV   no.    7 value from time series:   104.00     for time:  84.00     to  85.00    
RIV   no.    8 value from time series:   104.00     for time:  84.00     to  85.00    
RIV   no.    9 value from time series:   113.50     for time:  84.00     to  85.00    
RIV   no.   10 value from time series:   113.50     for time:  84.00     to  85.00    

 NO OUTPUT CONTROL FOR STRESS PERIOD    4   TIME STEP   25
WEL   no.    1 value from time series:   0.0000     for time:  85.00     to  86.00    
WEL   no.    2 value from time series:   0.0000     for time:  85.00     to  86.00    
RIV   no.    1 value from time series:   101.00     for time:  85.00     to  86.00    
RIV   no.    2 value from time series:   101.00     for time:  85.00     to  86.00    
RIV   no.    3 value from time series:   111.50     for time:  85.00     to  86.00    
RIV   no.    4 value from time series:   111.50     for time:  85.00     to  86.00    
RIV   no.    5 value from time series:   115.10     for time:  85.00     to  86.00    
RIV   no.    6 value from time series:   115.10     for time:  85.00     to  86.00    
RIV   no.    7 value from time series:   104.00     for time:  85.00     to  86.00    
RIV   no.    8 value from time series:   104.00     for time:  85.00     to  86.00    
RIV   no.    9 value from time series:   113.50     for time:  85.00     to  86.00    
RIV   no.   10 value from time series:   113.50     for time:  85.00     to  86.00    
WEL   no.    1 value from time series:   0.0000     for time:  85.00     to  86.00    
WEL   no.    2 value from time series:   0.0000     for time:  85.00     to  86.00    
RIV   no.    1 value from time series:   101.00     for time:  85.00     to  86.00    
RIV   no.    2 value from time series:   101.00     for time:  85.00     to  86.00    
RIV   no.    3 value from time series:   111.50     for time:  85.00     to  86.00    
RIV   no.    4 value from time series:   111.50     for time:  85.00     to  86.00    
RIV   no.    5 value from time series:   115.10     for time:  85.00     to  86.00    
RIV   no.    6 value from time series:   115.10     for time:  85.00     to  86.00    
RIV   no.    7 value from time series:   104.00     for time:  85.00     to  86.00    
RIV   no.    8 value from time series:   104.00     for time:  85.00     to  86.00    
RIV   no.    9 value from time series:   113.50     for time:  85.00     to  86.00    
RIV   no.   10 value from time series:   113.50     for time:  85.00     to  86.00    

 NO OUTPUT CONTROL FOR STRESS PERIOD    4   TIME STEP   26
WEL   no.    1 value from time series:   0.0000     for time:  86.00     to  87.00    
WEL   no.    2 value from time series:   0.0000     for time:  86.00     to  87.00    
RIV   no.    1 value from time series:   101.00     for time:  86.00     to  87.00    
RIV   no.    2 value from time series:   101.00     for time:  86.00     to  87.00    
RIV   no.    3 value from time series:   111.50     for time:  86.00     to  87.00    
RIV   no.    4 value from time series:   111.50     for time:  86.00     to  87.00    
RIV   no.    5 value from time series:   115.10     for time:  86.00     to  87.00    
RIV   no.    6 value from time series:   115.10     for time:  86.00     to  87.00    
RIV   no.    7 value from time series:   104.00     for time:  86.00     to  87.00    
RIV   no.    8 value from time series:   104.00     for time:  86.00     to  87.00    
RIV   no.    9 value from time series:   113.50     for time:  86.00     to  87.00    
RIV   no.   10 value from time series:   113.50     for time:  86.00     to  87.00    
WEL   no.    1 value from time series:   0.0000     for time:  86.00     to  87.00    
WEL   no.    2 value from time series:   0.0000     for time:  86.00     to  87.00    
RIV   no.    1 value from time series:   101.00     for time:  86.00     to  87.00    
RIV   no.    2 value from time series:   101.00     for time:  86.00     to  87.00    
RIV   no.    3 value from time series:   111.50     for time:  86.00     to  87.00    
RIV   no.    4 value from time series:   111.50     for time:  86.00     to  87.00    
RIV   no.    5 value from time series:   115.10     for time:  86.00     to  87.00    
RIV   no.    6 value from time series:   115.10     for time:  86.00     to  87.00    
RIV   no.    7 value from time series:   104.00     for time:  86.00     to  87.00    
RIV   no.    8 value from time series:   104.00     for time:  86.00     to  87.00    
RIV   no.    9 value from time series:   113.50     for time:  86.00     to  87.00    
RIV   no.   10 value from time series:   113.50     for time:  86.00     to  87.00    

 NO OUTPUT CONTROL FOR STRESS PERIOD    4   TIME STEP   27
WEL   no.    1 value from time series:   0.0000     for time:  87.00     to  88.00    
WEL   no.    2 value from time series:   0.0000     for time:  87.00     to  88.00    
RIV   no.    1 value from time series:   101.00     for time:  87.00     to  88.00    
RIV   no.    2 value from time series:   101.00     for time:  87.00     to  88.00    
RIV   no.    3 value from time series:   111.50     for time:  87.00     to  88.00    
RIV   no.    4 value from time series:   111.50     for time:  87.00     to  88.00    
RIV   no.    5 value from time series:   115.10     for time:  87.00     to  88.00    
RIV   no.    6 value from time series:   115.10     for time:  87.00     to  88.00    
RIV   no.    7 value from time series:   104.00     for time:  87.00     to  88.00    
RIV   no.    8 value from time series:   104.00     for time:  87.00     to  88.00    
RIV   no.    9 value from time series:   113.50     for time:  87.00     to  88.00    
RIV   no.   10 value from time series:   113.50     for time:  87.00     to  88.00    
WEL   no.    1 value from time series:   0.0000     for time:  87.00     to  88.00    
WEL   no.    2 value from time series:   0.0000     for time:  87.00     to  88.00    
RIV   no.    1 value from time series:   101.00     for time:  87.00     to  88.00    
RIV   no.    2 value from time series:   101.00     for time:  87.00     to  88.00    
RIV   no.    3 value from time series:   111.50     for time:  87.00     to  88.00    
RIV   no.    4 value from time series:   111.50     for time:  87.00     to  88.00    
RIV   no.    5 value from time series:   115.10     for time:  87.00     to  88.00    
RIV   no.    6 value from time series:   115.10     for time:  87.00     to  88.00    
RIV   no.    7 value from time series:   104.00     for time:  87.00     to  88.00    
RIV   no.    8 value from time series:   104.00     for time:  87.00     to  88.00    
RIV   no.    9 value from time series:   113.50     for time:  87.00     to  88.00    
RIV   no.   10 value from time series:   113.50     for time:  87.00     to  88.00    

 NO OUTPUT CONTROL FOR STRESS PERIOD    4   TIME STEP   28
WEL   no.    1 value from time series:   0.0000     for time:  88.00     to  89.00    
WEL   no.    2 value from time series:   0.0000     for time:  88.00     to  89.00    
RIV   no.    1 value from time series:   101.00     for time:  88.00     to  89.00    
RIV   no.    2 value from time series:   101.00     for time:  88.00     to  89.00    
RIV   no.    3 value from time series:   111.50     for time:  88.00     to  89.00    
RIV   no.    4 value from time series:   111.50     for time:  88.00     to  89.00    
RIV   no.    5 value from time series:   115.10     for time:  88.00     to  89.00    
RIV   no.    6 value from time series:   115.10     for time:  88.00     to  89.00    
RIV   no.    7 value from time series:   104.00     for time:  88.00     to  89.00    
RIV   no.    8 value from time series:   104.00     for time:  88.00     to  89.00    
RIV   no.    9 value from time series:   113.50     for time:  88.00     to  89.00    
RIV   no.   10 value from time series:   113.50     for time:  88.00     to  89.00    
WEL   no.    1 value from time series:   0.0000     for time:  88.00     to  89.00    
WEL   no.    2 value from time series:   0.0000     for time:  88.00     to  89.00    
RIV   no.    1 value from time series:   101.00     for time:  88.00     to  89.00    
RIV   no.    2 value from time series:   101.00     for time:  88.00     to  89.00    
RIV   no.    3 value from time series:   111.50     for time:  88.00     to  89.00    
RIV   no.    4 value from time series:   111.50     for time:  88.00     to  89.00    
RIV   no.    5 value from time series:   115.10     for time:  88.00     to  89.00    
RIV   no.    6 value from time series:   115.10     for time:  88.00     to  89.00    
RIV   no.    7 value from time series:   104.00     for time:  88.00     to  89.00    
RIV   no.    8 value from time series:   104.00     for time:  88.00     to  89.00    
RIV   no.    9 value from time series:   113.50     for time:  88.00     to  89.00    
RIV   no.   10 value from time series:   113.50     for time:  88.00     to  89.00    

 NO OUTPUT CONTROL FOR STRESS PERIOD    4   TIME STEP   29
WEL   no.    1 value from time series:   0.0000     for time:  89.00     to  90.00    
WEL   no.    2 value from time series:   0.0000     for time:  89.00     to  90.00    
RIV   no.    1 value from time series:   101.00     for time:  89.00     to  90.00    
RIV   no.    2 value from time series:   101.00     for time:  89.00     to  90.00    
RIV   no.    3 value from time series:   111.50     for time:  89.00     to  90.00    
RIV   no.    4 value from time series:   111.50     for time:  89.00     to  90.00    
RIV   no.    5 value from time series:   115.10     for time:  89.00     to  90.00    
RIV   no.    6 value from time series:   115.10     for time:  89.00     to  90.00    
RIV   no.    7 value from time series:   104.00     for time:  89.00     to  90.00    
RIV   no.    8 value from time series:   104.00     for time:  89.00     to  90.00    
RIV   no.    9 value from time series:   113.50     for time:  89.00     to  90.00    
RIV   no.   10 value from time series:   113.50     for time:  89.00     to  90.00    
WEL   no.    1 value from time series:   0.0000     for time:  89.00     to  90.00    
WEL   no.    2 value from time series:   0.0000     for time:  89.00     to  90.00    
RIV   no.    1 value from time series:   101.00     for time:  89.00     to  90.00    
RIV   no.    2 value from time series:   101.00     for time:  89.00     to  90.00    
RIV   no.    3 value from time series:   111.50     for time:  89.00     to  90.00    
RIV   no.    4 value from time series:   111.50     for time:  89.00     to  90.00    
RIV   no.    5 value from time series:   115.10     for time:  89.00     to  90.00    
RIV   no.    6 value from time series:   115.10     for time:  89.00     to  90.00    
RIV   no.    7 value from time series:   104.00     for time:  89.00     to  90.00    
RIV   no.    8 value from time series:   104.00     for time:  89.00     to  90.00    
RIV   no.    9 value from time series:   113.50     for time:  89.00     to  90.00    
RIV   no.   10 value from time series:   113.50     for time:  89.00     to  90.00    

 NO OUTPUT CONTROL FOR STRESS PERIOD    4   TIME STEP   30
WEL   no.    1 value from time series:   0.0000     for time:  90.00     to  91.00    
WEL   no.    2 value from time series:   0.0000     for time:  90.00     to  91.00    
RIV   no.    1 value from time series:   101.00     for time:  90.00     to  91.00    
RIV   no.    2 value from time series:   101.00     for time:  90.00     to  91.00    
RIV   no.    3 value from time series:   111.50     for time:  90.00     to  91.00    
RIV   no.    4 value from time series:   111.50     for time:  90.00     to  91.00    
RIV   no.    5 value from time series:   115.10     for time:  90.00     to  91.00    
RIV   no.    6 value from time series:   115.10     for time:  90.00     to  91.00    
RIV   no.    7 value from time series:   104.00     for time:  90.00     to  91.00    
RIV   no.    8 value from time series:   104.00     for time:  90.00     to  91.00    
RIV   no.    9 value from time series:   113.50     for time:  90.00     to  91.00    
RIV   no.   10 value from time series:   113.50     for time:  90.00     to  91.00    
WEL   no.    1 value from time series:   0.0000     for time:  90.00     to  91.00    
WEL   no.    2 value from time series:   0.0000     for time:  90.00     to  91.00    
RIV   no.    1 value from time series:   101.00     for time:  90.00     to  91.00    
RIV   no.    2 value from time series:   101.00     for time:  90.00     to  91.00    
RIV   no.    3 value from time series:   111.50     for time:  90.00     to  91.00    
RIV   no.    4 value from time series:   111.50     for time:  90.00     to  91.00    
RIV   no.    5 value from time series:   115.10     for time:  90.00     to  91.00    
RIV   no.    6 value from time series:   115.10     for time:  90.00     to  91.00    
RIV   no.    7 value from time series:   104.00     for time:  90.00     to  91.00    
RIV   no.    8 value from time series:   104.00     for time:  90.00     to  91.00    
RIV   no.    9 value from time series:   113.50     for time:  90.00     to  91.00    
RIV   no.   10 value from time series:   113.50     for time:  90.00     to  91.00    

 OUTPUT CONTROL FOR STRESS PERIOD    4   TIME STEP   31
    PRINT BUDGET
    SAVE BUDGET
    SAVE HEAD
    SAVE HEAD FOR ALL LAYERS
 UBDSV1 SAVING          STORAGE ON UNIT   1016 AT TIME STEP     31, STRESS PERIOD      4
 UBDSV1 SAVING FLOW RIGHT FACE  ON UNIT   1016 AT TIME STEP     31, STRESS PERIOD      4
 UBDSV1 SAVING FLOW FRONT FACE  ON UNIT   1016 AT TIME STEP     31, STRESS PERIOD      4
 UBDSV1 SAVING FLOW LOWER FACE  ON UNIT   1016 AT TIME STEP     31, STRESS PERIOD      4
 UBDSV4 SAVING WELLS NEAR RIVER ON UNIT   1016 AT TIME STEP     31, STRESS PERIOD      4

 WELLS NEAR RIVER   PERIOD  4   STEP 31
 BOUNDARY      1   LAYER   2   ROW     8   COL     4   RATE     0.00000      WELL_2
 BOUNDARY      2   LAYER   2   ROW     3   COL     4   RATE     0.00000      WELL_1
 UBDSV4 SAVING RIVER            ON UNIT   1016 AT TIME STEP     31, STRESS PERIOD      4

 RIVER              PERIOD  4   STEP 31
 BOUNDARY      1   LAYER   1   ROW     1   COL    15   RATE    -4868.62    
 BOUNDARY      2   LAYER   1   ROW     2   COL    15   RATE    -5992.27      RIV2
 BOUNDARY      3   LAYER   1   ROW     3   COL    15   RATE    -2257.95      RIV3
 BOUNDARY      4   LAYER   1   ROW     4   COL    15   RATE    -3721.00    
 BOUNDARY      5   LAYER   1   ROW     5   COL    15   RATE    -2359.53    
 BOUNDARY      6   LAYER   1   ROW     6   COL    15   RATE    -1707.65    
 BOUNDARY      7   LAYER   1   ROW     7   COL    15   RATE    -6189.16      RIVX
 BOUNDARY      8   LAYER   1   ROW     8   COL    15   RATE    -6036.46      RIVX
 BOUNDARY      9   LAYER   1   ROW     9   COL    15   RATE    -2245.55      RIVX
 BOUNDARY     10   LAYER   1   ROW    10   COL    15   RATE    -3149.58    

 GHB LAKES          PERIOD  4   STEP 31
 BOUNDARY      1   LAYER   1   ROW     3   COL     1   RATE    -14699.6    
 BOUNDARY      2   LAYER   1   ROW     7   COL     1   RATE    -2024.71      GHB2_UPPER
 BOUNDARY      3   LAYER   1   ROW     7   COL     1   RATE    -13300.9      GHB2_LOWER
 UBDSV4 SAVING RECHARGE         ON UNIT   1016 AT TIME STEP     31, STRESS PERIOD      4

 RECHARGE           PERIOD  4   STEP 31
 BOUNDARY      1   LAYER   1   ROW     1   COL     1   RATE     726.667    
 BOUNDARY      2   LAYER   1   ROW     1   COL     2   RATE     726.667    
 BOUNDARY      3   LAYER   1   ROW     1   COL     3   RATE     726.667    
 BOUNDARY      4   LAYER   1   ROW     1   COL     4   RATE     726.667    
 BOUNDARY      5   LAYER   1   ROW     1   COL     5   RATE     726.667    
 BOUNDARY      6   LAYER   1   ROW     1   COL     6   RATE     726.667    
 BOUNDARY      7   LAYER   1   ROW     1   COL     7   RATE     726.667    
 BOUNDARY      8   LAYER   1   ROW     1   COL     8   RATE     726.667    
 BOUNDARY      9   LAYER   1   ROW     1   COL     9   RATE     726.667    
 BOUNDARY     10   LAYER   1   ROW     1   COL    10   RATE     726.667    
 BOUNDARY     11   LAYER   1   ROW     1   COL    11   RATE     726.667    
 BOUNDARY     12   LAYER   1   ROW     1   COL    12   RATE     726.667    
 BOUNDARY     13   LAYER   1   ROW     1   COL    13   RATE     726.667    
 BOUNDARY     14   LAYER   1   ROW     1   COL    14   RATE     726.667    
 BOUNDARY     15   LAYER   1   ROW     1   COL    15   RATE     726.667    
 BOUNDARY     16   LAYER   1   ROW     2   COL     1   RATE     726.667    
 BOUNDARY     17   LAYER   1   ROW     2   COL     2   RATE     726.667    
 BOUNDARY     18   LAYER   1   ROW     2   COL     3   RATE     726.667    
 BOUNDARY     19   LAYER   1   ROW     2   COL     4   RATE     726.667    
 BOUNDARY     20   LAYER   1   ROW     2   COL     5   RATE     726.667    
 BOUNDARY     21   LAYER   1   ROW     2   COL     6   RATE     726.667    
 BOUNDARY     22   LAYER   1   ROW     2   COL     7   RATE     726.667    
 BOUNDARY     23   LAYER   1   ROW     2   COL     8   RATE     726.667    
 BOUNDARY     24   LAYER   1   ROW     2   COL     9   RATE     726.667    
 BOUNDARY     25   LAYER   1   ROW     2   COL    10   RATE     726.667    
 BOUNDARY     26   LAYER   1   ROW     2   COL    11   RATE     726.667    
 BOUNDARY     27   LAYER   1   ROW     2   COL    12   RATE     726.667    
 BOUNDARY     28   LAYER   1   ROW     2   COL    13   RATE     726.667    
 BOUNDARY     29   LAYER   1   ROW     2   COL    14   RATE     726.667    
 BOUNDARY     30   LAYER   1   ROW     2   COL    15   RATE     726.667    
 BOUNDARY     31   LAYER   1   ROW     3   COL     1   RATE     726.667    
 BOUNDARY     32   LAYER   1   ROW     3   COL     2   RATE     726.667    
 BOUNDARY     33   LAYER   1   ROW     3   COL     3   RATE     726.667    
 BOUNDARY     34   LAYER   1   ROW     3   COL     4   RATE     726.667    
 BOUNDARY     35   LAYER   1   ROW     3   COL     5   RATE     726.667    
 BOUNDARY     36   LAYER   1   ROW     3   COL     6   RATE     726.667    
 BOUNDARY     37   LAYER   1   ROW     3   COL     7   RATE     726.667    
 BOUNDARY     38   LAYER   1   ROW     3   COL     8   RATE     726.667    
 BOUNDARY     39   LAYER   1   ROW     3   COL     9   RATE     726.667    
 BOUNDARY     40   LAYER   1   ROW     3   COL    10   RATE     726.667    
 BOUNDARY     41   LAYER   1   ROW     3   COL    11   RATE     726.667    
 BOUNDARY     42   LAYER   1   ROW     3   COL    12   RATE     726.667    
 BOUNDARY     43   LAYER   1   ROW     3   COL    13   RATE     726.667    
 BOUNDARY     44   LAYER   1   ROW     3   COL    14   RATE     726.667    
 BOUNDARY     45   LAYER   1   ROW     3   COL    15   RATE     726.667    
 BOUNDARY     46   LAYER   1   ROW     4   COL     1   RATE     726.667    
 BOUNDARY     47   LAYER   1   ROW     4   COL     2   RATE     726.667    
 BOUNDARY     48   LAYER   1   ROW     4   COL     3   RATE     726.667    
 BOUNDARY     49   LAYER   1   ROW     4   COL     4   RATE     726.667    
 BOUNDARY     50   LAYER   1   ROW     4   COL     5   RATE     726.667    
 BOUNDARY     51   LAYER   1   ROW     4   COL     6   RATE     726.667    
 BOUNDARY     52   LAYER   1   ROW     4   COL     7   RATE     726.667    
 BOUNDARY     53   LAYER   1   ROW     4   COL     8   RATE     726.667    
 BOUNDARY     54   LAYER   1   ROW     4   COL     9   RATE     726.667    
 BOUNDARY     55   LAYER   1   ROW     4   COL    10   RATE     726.667    
 BOUNDARY     56   LAYER   1   ROW     4   COL    11   RATE     726.667    
 BOUNDARY     57   LAYER   1   ROW     4   COL    12   RATE     726.667    
 BOUNDARY     58   LAYER   1   ROW     4   COL    13   RATE     726.667    
 BOUNDARY     59   LAYER   1   ROW     4   COL    14   RATE     726.667    
 BOUNDARY     60   LAYER   1   ROW     4   COL    15   RATE     726.667    
 BOUNDARY     61   LAYER   1   ROW     5   COL     1   RATE     726.667    
 BOUNDARY     62   LAYER   1   ROW     5   COL     2   RATE     726.667    
 BOUNDARY     63   LAYER   1   ROW     5   COL     3   RATE     726.667    
 BOUNDARY     64   LAYER   1   ROW     5   COL     4   RATE     726.667    
 BOUNDARY     65   LAYER   1   ROW     5   COL     5   RATE     726.667    
 BOUNDARY     66   LAYER   1   ROW     5   COL     6   RATE     726.667    
 BOUNDARY     67   LAYER   1   ROW     5   COL     7   RATE     726.667    
 BOUNDARY     68   LAYER   1   ROW     5   COL     8   RATE     726.667    
 BOUNDARY     69   LAYER   1   ROW     5   COL     9   RATE     726.667    
 BOUNDARY     70   LAYER   1   ROW     5   COL    10   RATE     726.667    
 BOUNDARY     71   LAYER   1   ROW     5   COL    11   RATE     726.667    
 BOUNDARY     72   LAYER   1   ROW     5   COL    12   RATE     726.667    
 BOUNDARY     73   LAYER   1   ROW     5   COL    13   RATE     726.667    
 BOUNDARY     74   LAYER   1   ROW     5   COL    14   RATE     726.667    
 BOUNDARY     75   LAYER   1   ROW     5   COL    15   RATE     726.667    
 BOUNDARY     76   LAYER   1   ROW     6   COL     1   RATE     726.667    
 BOUNDARY     77   LAYER   1   ROW     6   COL     2   RATE     726.667    
 BOUNDARY     78   LAYER   1   ROW     6   COL     3   RATE     726.667    
 BOUNDARY     79   LAYER   1   ROW     6   COL     4   RATE     726.667    
 BOUNDARY     80   LAYER   1   ROW     6   COL     5   RATE     726.667    
 BOUNDARY     81   LAYER   1   ROW     6   COL     6   RATE     726.667    
 BOUNDARY     82   LAYER   1   ROW     6   COL     7   RATE     726.667    
 BOUNDARY     83   LAYER   1   ROW     6   COL     8   RATE     726.667    
 BOUNDARY     84   LAYER   1   ROW     6   COL     9   RATE     726.667    
 BOUNDARY     85   LAYER   1   ROW     6   COL    10   RATE     726.667    
 BOUNDARY     86   LAYER   1   ROW     6   COL    11   RATE     726.667    
 BOUNDARY     87   LAYER   1   ROW     6   COL    12   RATE     726.667    
 BOUNDARY     88   LAYER   1   ROW     6   COL    13   RATE     726.667    
 BOUNDARY     89   LAYER   1   ROW     6   COL    14   RATE     726.667    
 BOUNDARY     90   LAYER   1   ROW     6   COL    15   RATE     726.667    
 BOUNDARY     91   LAYER   1   ROW     7   COL     1   RATE     726.667    
 BOUNDARY     92   LAYER   1   ROW     7   COL     2   RATE     726.667    
 BOUNDARY     93   LAYER   1   ROW     7   COL     3   RATE     726.667    
 BOUNDARY     94   LAYER   1   ROW     7   COL     4   RATE     726.667    
 BOUNDARY     95   LAYER   1   ROW     7   COL     5   RATE     726.667    
 BOUNDARY     96   LAYER   1   ROW     7   COL     6   RATE     726.667    
 BOUNDARY     97   LAYER   1   ROW     7   COL     7   RATE     726.667    
 BOUNDARY     98   LAYER   1   ROW     7   COL     8   RATE     726.667    
 BOUNDARY     99   LAYER   1   ROW     7   COL     9   RATE     726.667    
 BOUNDARY    100   LAYER   1   ROW     7   COL    10   RATE     726.667    
 BOUNDARY    101   LAYER   1   ROW     7   COL    11   RATE     726.667    
 BOUNDARY    102   LAYER   1   ROW     7   COL    12   RATE     726.667    
 BOUNDARY    103   LAYER   1   ROW     7   COL    13   RATE     726.667    
 BOUNDARY    104   LAYER   1   ROW     7   COL    14   RATE     726.667    
 BOUNDARY    105   LAYER   1   ROW     7   COL    15   RATE     726.667    
 BOUNDARY    106   LAYER   1   ROW     8   COL     1   RATE     726.667    
 BOUNDARY    107   LAYER   1   ROW     8   COL     2   RATE     726.667    
 BOUNDARY    108   LAYER   1   ROW     8   COL     3   RATE     726.667    
 BOUNDARY    109   LAYER   1   ROW     8   COL     4   RATE     726.667    
 BOUNDARY    110   LAYER   1   ROW     8   COL     5   RATE     726.667    
 BOUNDARY    111   LAYER   1   ROW     8   COL     6   RATE     726.667    
 BOUNDARY    112   LAYER   1   ROW     8   COL     7   RATE     726.667    
 BOUNDARY    113   LAYER   1   ROW     8   COL     8   RATE     726.667    
 BOUNDARY    114   LAYER   1   ROW     8   COL     9   RATE     726.667    
 BOUNDARY    115   LAYER   1   ROW     8   COL    10   RATE     726.667    
 BOUNDARY    116   LAYER   1   ROW     8   COL    11   RATE     726.667    
 BOUNDARY    117   LAYER   1   ROW     8   COL    12   RATE     726.667    
 BOUNDARY    118   LAYER   1   ROW     8   COL    13   RATE     726.667    
 BOUNDARY    119   LAYER   1   ROW     8   COL    14   RATE     726.667    
 BOUNDARY    120   LAYER   1   ROW     8   COL    15   RATE     726.667    
 BOUNDARY    121   LAYER   1   ROW     9   COL     1   RATE     726.667    
 BOUNDARY    122   LAYER   1   ROW     9   COL     2   RATE     726.667    
 BOUNDARY    123   LAYER   1   ROW     9   COL     3   RATE     726.667    
 BOUNDARY    124   LAYER   1   ROW     9   COL     4   RATE     726.667    
 BOUNDARY    125   LAYER   1   ROW     9   COL     5   RATE     726.667    
 BOUNDARY    126   LAYER   1   ROW     9   COL     6   RATE     726.667    
 BOUNDARY    127   LAYER   1   ROW     9   COL     7   RATE     726.667    
 BOUNDARY    128   LAYER   1   ROW     9   COL     8   RATE     726.667    
 BOUNDARY    129   LAYER   1   ROW     9   COL     9   RATE     726.667    
 BOUNDARY    130   LAYER   1   ROW     9   COL    10   RATE     726.667    
 BOUNDARY    131   LAYER   1   ROW     9   COL    11   RATE     726.667    
 BOUNDARY    132   LAYER   1   ROW     9   COL    12   RATE     726.667    
 BOUNDARY    133   LAYER   1   ROW     9   COL    13   RATE     726.667    
 BOUNDARY    134   LAYER   1   ROW     9   COL    14   RATE     726.667    
 BOUNDARY    135   LAYER   1   ROW     9   COL    15   RATE     726.667    
 BOUNDARY    136   LAYER   1   ROW    10   COL     1   RATE     726.667    
 BOUNDARY    137   LAYER   1   ROW    10   COL     2   RATE     726.667    
 BOUNDARY    138   LAYER   1   ROW    10   COL     3   RATE     726.667    
 BOUNDARY    139   LAYER   1   ROW    10   COL     4   RATE     726.667    
 BOUNDARY    140   LAYER   1   ROW    10   COL     5   RATE     726.667    
 BOUNDARY    141   LAYER   1   ROW    10   COL     6   RATE     726.667    
 BOUNDARY    142   LAYER   1   ROW    10   COL     7   RATE     726.667    
 BOUNDARY    143   LAYER   1   ROW    10   COL     8   RATE     726.667    
 BOUNDARY    144   LAYER   1   ROW    10   COL     9   RATE     726.667    
 BOUNDARY    145   LAYER   1   ROW    10   COL    10   RATE     726.667    
 BOUNDARY    146   LAYER   1   ROW    10   COL    11   RATE     726.667    
 BOUNDARY    147   LAYER   1   ROW    10   COL    12   RATE     726.667    
 BOUNDARY    148   LAYER   1   ROW    10   COL    13   RATE     726.667    
 BOUNDARY    149   LAYER   1   ROW    10   COL    14   RATE     726.667    
 BOUNDARY    150   LAYER   1   ROW    10   COL    15   RATE     726.667    
 UBDSV4 SAVING ET SEGS          ON UNIT   1016 AT TIME STEP     31, STRESS PERIOD      4

 ET SEGS            PERIOD  4   STEP 31
 BOUNDARY      1   LAYER   1   ROW     1   COL     1   RATE    -2.78447    
 BOUNDARY      2   LAYER   1   ROW     1   COL     2   RATE    -9.66566    
 BOUNDARY      3   LAYER   1   ROW     1   COL     3   RATE    -60.7450    
 BOUNDARY      4   LAYER   1   ROW     1   COL     4   RATE    -100.208    
 BOUNDARY      5   LAYER   1   ROW     1   COL     5   RATE    -100.208    
 BOUNDARY      6   LAYER   1   ROW     1   COL     6   RATE    -100.208    
 BOUNDARY      7   LAYER   1   ROW     1   COL     7   RATE    -100.208    
 BOUNDARY      8   LAYER   1   ROW     1   COL     8   RATE    -100.208    
 BOUNDARY      9   LAYER   1   ROW     1   COL     9   RATE    -100.208    
 BOUNDARY     10   LAYER   1   ROW     1   COL    10   RATE    -100.208    
 BOUNDARY     11   LAYER   1   ROW     1   COL    11   RATE    -100.208    
 BOUNDARY     12   LAYER   1   ROW     1   COL    12   RATE    -19.1165    
 BOUNDARY     13   LAYER   1   ROW     1   COL    13   RATE     0.00000    
 BOUNDARY     14   LAYER   1   ROW     1   COL    14   RATE     0.00000    
 BOUNDARY     15   LAYER   1   ROW     1   COL    15   RATE     0.00000    
 BOUNDARY     16   LAYER   1   ROW     2   COL     1   RATE     0.00000    
 BOUNDARY     17   LAYER   1   ROW     2   COL     2   RATE    -5.12371    
 BOUNDARY     18   LAYER   1   ROW     2   COL     3   RATE    -32.4281    
 BOUNDARY     19   LAYER   1   ROW     2   COL     4   RATE    -100.208    
 BOUNDARY     20   LAYER   1   ROW     2   COL     5   RATE    -100.208    
 BOUNDARY     21   LAYER   1   ROW     2   COL     6   RATE    -100.208    
 BOUNDARY     22   LAYER   1   ROW     2   COL     7   RATE    -100.208    
 BOUNDARY     23   LAYER   1   ROW     2   COL     8   RATE    -100.208    
 BOUNDARY     24   LAYER   1   ROW     2   COL     9   RATE    -100.208    
 BOUNDARY     25   LAYER   1   ROW     2   COL    10   RATE    -100.208    
 BOUNDARY     26   LAYER   1   ROW     2   COL    11   RATE    -100.208    
 BOUNDARY     27   LAYER   1   ROW     2   COL    12   RATE    -20.8637    
 BOUNDARY     28   LAYER   1   ROW     2   COL    13   RATE   -0.775265    
 BOUNDARY     29   LAYER   1   ROW     2   COL    14   RATE     0.00000    
 BOUNDARY     30   LAYER   1   ROW     2   COL    15   RATE     0.00000    
 BOUNDARY     31   LAYER   1   ROW     3   COL     1   RATE     0.00000    
 BOUNDARY     32   LAYER   1   ROW     3   COL     2   RATE     0.00000    
 BOUNDARY     33   LAYER   1   ROW     3   COL     3   RATE    -24.5264    
 BOUNDARY     34   LAYER   1   ROW     3   COL     4   RATE    -100.208    
 BOUNDARY     35   LAYER   1   ROW     3   COL     5   RATE    -100.208    
 BOUNDARY     36   LAYER   1   ROW     3   COL     6   RATE    -100.208    
 BOUNDARY     37   LAYER   1   ROW     3   COL     7   RATE    -100.208    
 BOUNDARY     38   LAYER   1   ROW     3   COL     8   RATE    -100.208    
 BOUNDARY     39   LAYER   1   ROW     3   COL     9   RATE    -100.208    
 BOUNDARY     40   LAYER   1   ROW     3   COL    10   RATE    -100.208    
 BOUNDARY     41   LAYER   1   ROW     3   COL    11   RATE    -100.208    
 BOUNDARY     42   LAYER   1   ROW     3   COL    12   RATE    -23.8093    
 BOUNDARY     43   LAYER   1   ROW     3   COL    13   RATE    -2.57376    
 BOUNDARY     44   LAYER   1   ROW     3   COL    14   RATE     0.00000    
 BOUNDARY     45   LAYER   1   ROW     3   COL    15   RATE     0.00000    
 BOUNDARY     46   LAYER   1   ROW     4   COL     1   RATE     0.00000    
 BOUNDARY     47   LAYER   1   ROW     4   COL     2   RATE    -3.61263    
 BOUNDARY     48   LAYER   1   ROW     4   COL     3   RATE    -28.4340    
 BOUNDARY     49   LAYER   1   ROW     4   COL     4   RATE    -100.208    
 BOUNDARY     50   LAYER   1   ROW     4   COL     5   RATE    -100.208    
 BOUNDARY     51   LAYER   1   ROW     4   COL     6   RATE    -100.208    
 BOUNDARY     52   LAYER   1   ROW     4   COL     7   RATE    -100.208    
 BOUNDARY     53   LAYER   1   ROW     4   COL     8   RATE    -100.208    
 BOUNDARY     54   LAYER   1   ROW     4   COL     9   RATE    -100.208    
 BOUNDARY     55   LAYER   1   ROW     4   COL    10   RATE    -100.208    
 BOUNDARY     56   LAYER   1   ROW     4   COL    11   RATE    -100.208    
 BOUNDARY     57   LAYER   1   ROW     4   COL    12   RATE    -26.6061    
 BOUNDARY     58   LAYER   1   ROW     4   COL    13   RATE    -4.02932    
 BOUNDARY     59   LAYER   1   ROW     4   COL    14   RATE     0.00000    
 BOUNDARY     60   LAYER   1   ROW     4   COL    15   RATE     0.00000    
 BOUNDARY     61   LAYER   1   ROW     5   COL     1   RATE     0.00000    
 BOUNDARY     62   LAYER   1   ROW     5   COL     2   RATE    -6.60149    
 BOUNDARY     63   LAYER   1   ROW     5   COL     3   RATE    -42.4135    
 BOUNDARY     64   LAYER   1   ROW     5   COL     4   RATE    -100.208    
 BOUNDARY     65   LAYER   1   ROW     5   COL     5   RATE    -100.208    
 BOUNDARY     66   LAYER   1   ROW     5   COL     6   RATE    -100.208    
 BOUNDARY     67   LAYER   1   ROW     5   COL     7   RATE    -100.208    
 BOUNDARY     68   LAYER   1   ROW     5   COL     8   RATE    -100.208    
 BOUNDARY     69   LAYER   1   ROW     5   COL     9   RATE    -100.208    
 BOUNDARY     70   LAYER   1   ROW     5   COL    10   RATE    -100.208    
 BOUNDARY     71   LAYER   1   ROW     5   COL    11   RATE    -100.208    
 BOUNDARY     72   LAYER   1   ROW     5   COL    12   RATE    -28.5282    
 BOUNDARY     73   LAYER   1   ROW     5   COL    13   RATE    -4.91628    
 BOUNDARY     74   LAYER   1   ROW     5   COL    14   RATE     0.00000    
 BOUNDARY     75   LAYER   1   ROW     5   COL    15   RATE     0.00000    
 BOUNDARY     76   LAYER   1   ROW     6   COL     1   RATE     0.00000    
 BOUNDARY     77   LAYER   1   ROW     6   COL     2   RATE    -5.15763    
 BOUNDARY     78   LAYER   1   ROW     6   COL     3   RATE    -46.2668    
 BOUNDARY     79   LAYER   1   ROW     6   COL     4   RATE    -100.208    
 BOUNDARY     80   LAYER   1   ROW     6   COL     5   RATE    -100.208    
 BOUNDARY     81   LAYER   1   ROW     6   COL     6   RATE    -100.208    
 BOUNDARY     82   LAYER   1   ROW     6   COL     7   RATE    -100.208    
 BOUNDARY     83   LAYER   1   ROW     6   COL     8   RATE    -100.208    
 BOUNDARY     84   LAYER   1   ROW     6   COL     9   RATE    -100.208    
 BOUNDARY     85   LAYER   1   ROW     6   COL    10   RATE    -100.208    
 BOUNDARY     86   LAYER   1   ROW     6   COL    11   RATE    -100.208    
 BOUNDARY     87   LAYER   1   ROW     6   COL    12   RATE    -29.1740    
 BOUNDARY     88   LAYER   1   ROW     6   COL    13   RATE    -4.86795    
 BOUNDARY     89   LAYER   1   ROW     6   COL    14   RATE     0.00000    
 BOUNDARY     90   LAYER   1   ROW     6   COL    15   RATE     0.00000    
 BOUNDARY     91   LAYER   1   ROW     7   COL     1   RATE     0.00000    
 BOUNDARY     92   LAYER   1   ROW     7   COL     2   RATE    -1.62121    
 BOUNDARY     93   LAYER   1   ROW     7   COL     3   RATE    -53.2211    
 BOUNDARY     94   LAYER   1   ROW     7   COL     4   RATE    -100.208    
 BOUNDARY     95   LAYER   1   ROW     7   COL     5   RATE    -100.208    
 BOUNDARY     96   LAYER   1   ROW     7   COL     6   RATE    -100.208    
 BOUNDARY     97   LAYER   1   ROW     7   COL     7   RATE    -100.208    
 BOUNDARY     98   LAYER   1   ROW     7   COL     8   RATE    -100.208    
 BOUNDARY     99   LAYER   1   ROW     7   COL     9   RATE    -100.208    
 BOUNDARY    100   LAYER   1   ROW     7   COL    10   RATE    -100.208    
 BOUNDARY    101   LAYER   1   ROW     7   COL    11   RATE    -100.208    
 BOUNDARY    102   LAYER   1   ROW     7   COL    12   RATE    -29.0273    
 BOUNDARY    103   LAYER   1   ROW     7   COL    13   RATE    -4.14827    
 BOUNDARY    104   LAYER   1   ROW     7   COL    14   RATE     0.00000    
 BOUNDARY    105   LAYER   1   ROW     7   COL    15   RATE     0.00000    
 BOUNDARY    106   LAYER   1   ROW     8   COL     1   RATE     0.00000    
 BOUNDARY    107   LAYER   1   ROW     8   COL     2   RATE    -13.4646    
 BOUNDARY    108   LAYER   1   ROW     8   COL     3   RATE    -100.208    
 BOUNDARY    109   LAYER   1   ROW     8   COL     4   RATE    -100.208    
 BOUNDARY    110   LAYER   1   ROW     8   COL     5   RATE    -100.208    
 BOUNDARY    111   LAYER   1   ROW     8   COL     6   RATE    -100.208    
 BOUNDARY    112   LAYER   1   ROW     8   COL     7   RATE    -100.208    
 BOUNDARY    113   LAYER   1   ROW     8   COL     8   RATE    -100.208    
 BOUNDARY    114   LAYER   1   ROW     8   COL     9   RATE    -100.208    
 BOUNDARY    115   LAYER   1   ROW     8   COL    10   RATE    -100.208    
 BOUNDARY    116   LAYER   1   ROW     8   COL    11   RATE    -100.208    
 BOUNDARY    117   LAYER   1   ROW     8   COL    12   RATE    -29.4437    
 BOUNDARY    118   LAYER   1   ROW     8   COL    13   RATE    -4.17824    
 BOUNDARY    119   LAYER   1   ROW     8   COL    14   RATE     0.00000    
 BOUNDARY    120   LAYER   1   ROW     8   COL    15   RATE     0.00000    
 BOUNDARY    121   LAYER   1   ROW     9   COL     1   RATE    -21.0836    
 BOUNDARY    122   LAYER   1   ROW     9   COL     2   RATE    -72.5468    
 BOUNDARY    123   LAYER   1   ROW     9   COL     3   RATE    -100.208    
 BOUNDARY    124   LAYER   1   ROW     9   COL     4   RATE    -100.208    
 BOUNDARY    125   LAYER   1   ROW     9   COL     5   RATE    -100.208    
 BOUNDARY    126   LAYER   1   ROW     9   COL     6   RATE    -100.208    
 BOUNDARY    127   LAYER   1   ROW     9   COL     7   RATE    -100.208    
 BOUNDARY    128   LAYER   1   ROW     9   COL     8   RATE    -100.208    
 BOUNDARY    129   LAYER   1   ROW     9   COL     9   RATE    -100.208    
 BOUNDARY    130   LAYER   1   ROW     9   COL    10   RATE    -100.208    
 BOUNDARY    131   LAYER   1   ROW     9   COL    11   RATE    -100.208    
 BOUNDARY    132   LAYER   1   ROW     9   COL    12   RATE    -32.7598    
 BOUNDARY    133   LAYER   1   ROW     9   COL    13   RATE    -5.03722    
 BOUNDARY    134   LAYER   1   ROW     9   COL    14   RATE     0.00000    
 BOUNDARY    135   LAYER   1   ROW     9   COL    15   RATE     0.00000    
 BOUNDARY    136   LAYER   1   ROW    10   COL     1   RATE    -80.7592    
 BOUNDARY    137   LAYER   1   ROW    10   COL     2   RATE    -100.208    
 BOUNDARY    138   LAYER   1   ROW    10   COL     3   RATE    -100.208    
 BOUNDARY    139   LAYER   1   ROW    10   COL     4   RATE    -100.208    
 BOUNDARY    140   LAYER   1   ROW    10   COL     5   RATE    -100.208    
 BOUNDARY    141   LAYER   1   ROW    10   COL     6   RATE    -100.208    
 BOUNDARY    142   LAYER   1   ROW    10   COL     7   RATE    -100.208    
 BOUNDARY    143   LAYER   1   ROW    10   COL     8   RATE    -100.208    
 BOUNDARY    144   LAYER   1   ROW    10   COL     9   RATE    -100.208    
 BOUNDARY    145   LAYER   1   ROW    10   COL    10   RATE    -100.208    
 BOUNDARY    146   LAYER   1   ROW    10   COL    11   RATE    -100.208    
 BOUNDARY    147   LAYER   1   ROW    10   COL    12   RATE    -36.9959    
 BOUNDARY    148   LAYER   1   ROW    10   COL    13   RATE    -5.58450    
 BOUNDARY    149   LAYER   1   ROW    10   COL    14   RATE     0.00000    
 BOUNDARY    150   LAYER   1   ROW    10   COL    15   RATE     0.00000    

 HEAD WILL BE SAVED ON UNIT 1017 AT END OF TIME STEP   31, STRESS PERIOD    4
1
  VOLUME BUDGET FOR ENTIRE MODEL AT END OF TIME STEP   31, STRESS PERIOD   4
  ------------------------------------------------------------------------------

     CUMULATIVE VOLUME      L**3       RATES FOR THIS TIME STEP      L**3/T
     ------------------                 ------------------------

           IN:                                      IN:
           ---                                      ---
             STORAGE =       51475.6198               STORAGE =           0.0000
    WELLS NEAR RIVER =           0.0000      WELLS NEAR RIVER =           0.0000
               RIVER =           0.0000                 RIVER =           0.0000
           GHB LAKES =           0.0000             GHB LAKES =           0.0000
            RECHARGE =     8209000.0000              RECHARGE =      109000.0000
             ET SEGS =           0.0000               ET SEGS =           0.0000

            TOTAL IN =     8260475.6198              TOTAL IN =      109000.0000

          OUT:                                     OUT:
          ----                                     ----
             STORAGE =     1495060.8106               STORAGE =       31206.6049
    WELLS NEAR RIVER =        3570.0000      WELLS NEAR RIVER =           0.0000
               RIVER =     3351702.4188                 RIVER =       38527.7566
           GHB LAKES =     2696793.6296             GHB LAKES =       30025.2473
            RECHARGE =           0.0000              RECHARGE =           0.0000
             ET SEGS =      713348.7616               ET SEGS =        9240.3912

           TOTAL OUT =     8260475.6207             TOTAL OUT =      109000.0000

            IN - OUT =      -9.0845E-04              IN - OUT =      -3.3905E-06

 PERCENT DISCREPANCY =          -0.00     PERCENT DISCREPANCY =          -0.00






         TIME SUMMARY AT END OF TIME STEP   31 IN STRESS PERIOD    4
                    SECONDS     MINUTES      HOURS       DAYS        YEARS
                    -----------------------------------------------------------
   TIME STEP LENGTH  86400.      1440.0      24.000     1.00000     2.73785E-03
 STRESS PERIOD TIME 2.67840E+06  44640.      744.00      31.000     8.48734E-02
         TOTAL TIME 7.86240E+06 1.31040E+05  2184.0      91.000     0.24914    

 REUSING STORAGE VALUES FROM LAST STRESS PERIOD

 REUSING WELS FROM LAST STRESS PERIOD

 REUSING RIVS FROM LAST STRESS PERIOD

 REUSING GHBS FROM LAST STRESS PERIOD

 REUSING RCHS FROM LAST STRESS PERIOD

 REUSING EVTS FROM LAST STRESS PERIOD
WEL   no.    1 value from time series:   0.0000     for time:  91.00     to  92.00    
WEL   no.    2 value from time series:   0.0000     for time:  91.00     to  92.00    
RIV   no.    1 value from time series:   101.00     for time:  91.00     to  92.00    
RIV   no.    2 value from time series:   101.00     for time:  91.00     to  92.00    
RIV   no.    3 value from time series:   111.50     for time:  91.00     to  92.00    
RIV   no.    4 value from time series:   111.50     for time:  91.00     to  92.00    
RIV   no.    5 value from time series:   115.10     for time:  91.00     to  92.00    
RIV   no.    6 value from time series:   115.10     for time:  91.00     to  92.00    
RIV   no.    7 value from time series:   104.00     for time:  91.00     to  92.00    
RIV   no.    8 value from time series:   104.00     for time:  91.00     to  92.00    
RIV   no.    9 value from time series:   113.50     for time:  91.00     to  92.00    
RIV   no.   10 value from time series:   113.50     for time:  91.00     to  92.00    
WEL   no.    1 value from time series:   0.0000     for time:  91.00     to  92.00    
WEL   no.    2 value from time series:   0.0000     for time:  91.00     to  92.00    
RIV   no.    1 value from time series:   101.00     for time:  91.00     to  92.00    
RIV   no.    2 value from time series:   101.00     for time:  91.00     to  92.00    
RIV   no.    3 value from time series:   111.50     for time:  91.00     to  92.00    
RIV   no.    4 value from time series:   111.50     for time:  91.00     to  92.00    
RIV   no.    5 value from time series:   115.10     for time:  91.00     to  92.00    
RIV   no.    6 value from time series:   115.10     for time:  91.00     to  92.00    
RIV   no.    7 value from time series:   104.00     for time:  91.00     to  92.00    
RIV   no.    8 value from time series:   104.00     for time:  91.00     to  92.00    
RIV   no.    9 value from time series:   113.50     for time:  91.00     to  92.00    
RIV   no.   10 value from time series:   113.50     for time:  91.00     to  92.00    

 OUTPUT CONTROL FOR STRESS PERIOD    5   TIME STEP    1
    SAVE BUDGET
    SAVE HEAD
    SAVE HEAD FOR ALL LAYERS
 UBDSV1 SAVING          STORAGE ON UNIT   1016 AT TIME STEP      1, STRESS PERIOD      5
 UBDSV1 SAVING FLOW RIGHT FACE  ON UNIT   1016 AT TIME STEP      1, STRESS PERIOD      5
 UBDSV1 SAVING FLOW FRONT FACE  ON UNIT   1016 AT TIME STEP      1, STRESS PERIOD      5
 UBDSV1 SAVING FLOW LOWER FACE  ON UNIT   1016 AT TIME STEP      1, STRESS PERIOD      5
 UBDSV4 SAVING WELLS NEAR RIVER ON UNIT   1016 AT TIME STEP      1, STRESS PERIOD      5

 WELLS NEAR RIVER   PERIOD  5   STEP  1
 BOUNDARY      1   LAYER   2   ROW     8   COL     4   RATE     0.00000      WELL_2
 BOUNDARY      2   LAYER   2   ROW     3   COL     4   RATE     0.00000      WELL_1
 UBDSV4 SAVING RIVER            ON UNIT   1016 AT TIME STEP      1, STRESS PERIOD      5

 RIVER              PERIOD  5   STEP  1
 BOUNDARY      1   LAYER   1   ROW     1   COL    15   RATE    -4871.93    
 BOUNDARY      2   LAYER   1   ROW     2   COL    15   RATE    -5995.70      RIV2
 BOUNDARY      3   LAYER   1   ROW     3   COL    15   RATE    -2261.47      RIV3
 BOUNDARY      4   LAYER   1   ROW     4   COL    15   RATE    -3724.59    
 BOUNDARY      5   LAYER   1   ROW     5   COL    15   RATE    -2363.04    
 BOUNDARY      6   LAYER   1   ROW     6   COL    15   RATE    -1711.10    
 BOUNDARY      7   LAYER   1   ROW     7   COL    15   RATE    -6192.72      RIVX
 BOUNDARY      8   LAYER   1   ROW     8   COL    15   RATE    -6040.14      RIVX
 BOUNDARY      9   LAYER   1   ROW     9   COL    15   RATE    -2249.33      RIVX
 BOUNDARY     10   LAYER   1   ROW    10   COL    15   RATE    -3153.50    

 GHB LAKES          PERIOD  5   STEP  1
 BOUNDARY      1   LAYER   1   ROW     3   COL     1   RATE    -14706.1    
 BOUNDARY      2   LAYER   1   ROW     7   COL     1   RATE    -2029.92      GHB2_UPPER
 BOUNDARY      3   LAYER   1   ROW     7   COL     1   RATE    -13302.8      GHB2_LOWER
 UBDSV4 SAVING RECHARGE         ON UNIT   1016 AT TIME STEP      1, STRESS PERIOD      5

 RECHARGE           PERIOD  5   STEP  1
 BOUNDARY      1   LAYER   1   ROW     1   COL     1   RATE     730.000    
 BOUNDARY      2   LAYER   1   ROW     1   COL     2   RATE     730.000    
 BOUNDARY      3   LAYER   1   ROW     1   COL     3   RATE     730.000    
 BOUNDARY      4   LAYER   1   ROW     1   COL     4   RATE     730.000    
 BOUNDARY      5   LAYER   1   ROW     1   COL     5   RATE     730.000    
 BOUNDARY      6   LAYER   1   ROW     1   COL     6   RATE     730.000    
 BOUNDARY      7   LAYER   1   ROW     1   COL     7   RATE     730.000    
 BOUNDARY      8   LAYER   1   ROW     1   COL     8   RATE     730.000    
 BOUNDARY      9   LAYER   1   ROW     1   COL     9   RATE     730.000    
 BOUNDARY     10   LAYER   1   ROW     1   COL    10   RATE     730.000    
 BOUNDARY     11   LAYER   1   ROW     1   COL    11   RATE     730.000    
 BOUNDARY     12   LAYER   1   ROW     1   COL    12   RATE     730.000    
 BOUNDARY     13   LAYER   1   ROW     1   COL    13   RATE     730.000    
 BOUNDARY     14   LAYER   1   ROW     1   COL    14   RATE     730.000    
 BOUNDARY     15   LAYER   1   ROW     1   COL    15   RATE     730.000    
 BOUNDARY     16   LAYER   1   ROW     2   COL     1   RATE     730.000    
 BOUNDARY     17   LAYER   1   ROW     2   COL     2   RATE     730.000    
 BOUNDARY     18   LAYER   1   ROW     2   COL     3   RATE     730.000    
 BOUNDARY     19   LAYER   1   ROW     2   COL     4   RATE     730.000    
 BOUNDARY     20   LAYER   1   ROW     2   COL     5   RATE     730.000    
 BOUNDARY     21   LAYER   1   ROW     2   COL     6   RATE     730.000    
 BOUNDARY     22   LAYER   1   ROW     2   COL     7   RATE     730.000    
 BOUNDARY     23   LAYER   1   ROW     2   COL     8   RATE     730.000    
 BOUNDARY     24   LAYER   1   ROW     2   COL     9   RATE     730.000    
 BOUNDARY     25   LAYER   1   ROW     2   COL    10   RATE     730.000    
 BOUNDARY     26   LAYER   1   ROW     2   COL    11   RATE     730.000    
 BOUNDARY     27   LAYER   1   ROW     2   COL    12   RATE     730.000    
 BOUNDARY     28   LAYER   1   ROW     2   COL    13   RATE     730.000    
 BOUNDARY     29   LAYER   1   ROW     2   COL    14   RATE     730.000    
 BOUNDARY     30   LAYER   1   ROW     2   COL    15   RATE     730.000    
 BOUNDARY     31   LAYER   1   ROW     3   COL     1   RATE     730.000    
 BOUNDARY     32   LAYER   1   ROW     3   COL     2   RATE     730.000    
 BOUNDARY     33   LAYER   1   ROW     3   COL     3   RATE     730.000    
 BOUNDARY     34   LAYER   1   ROW     3   COL     4   RATE     730.000    
 BOUNDARY     35   LAYER   1   ROW     3   COL     5   RATE     730.000    
 BOUNDARY     36   LAYER   1   ROW     3   COL     6   RATE     730.000    
 BOUNDARY     37   LAYER   1   ROW     3   COL     7   RATE     730.000    
 BOUNDARY     38   LAYER   1   ROW     3   COL     8   RATE     730.000    
 BOUNDARY     39   LAYER   1   ROW     3   COL     9   RATE     730.000    
 BOUNDARY     40   LAYER   1   ROW     3   COL    10   RATE     730.000    
 BOUNDARY     41   LAYER   1   ROW     3   COL    11   RATE     730.000    
 BOUNDARY     42   LAYER   1   ROW     3   COL    12   RATE     730.000    
 BOUNDARY     43   LAYER   1   ROW     3   COL    13   RATE     730.000    
 BOUNDARY     44   LAYER   1   ROW     3   COL    14   RATE     730.000    
 BOUNDARY     45   LAYER   1   ROW     3   COL    15   RATE     730.000    
 BOUNDARY     46   LAYER   1   ROW     4   COL     1   RATE     730.000    
 BOUNDARY     47   LAYER   1   ROW     4   COL     2   RATE     730.000    
 BOUNDARY     48   LAYER   1   ROW     4   COL     3   RATE     730.000    
 BOUNDARY     49   LAYER   1   ROW     4   COL     4   RATE     730.000    
 BOUNDARY     50   LAYER   1   ROW     4   COL     5   RATE     730.000    
 BOUNDARY     51   LAYER   1   ROW     4   COL     6   RATE     730.000    
 BOUNDARY     52   LAYER   1   ROW     4   COL     7   RATE     730.000    
 BOUNDARY     53   LAYER   1   ROW     4   COL     8   RATE     730.000    
 BOUNDARY     54   LAYER   1   ROW     4   COL     9   RATE     730.000    
 BOUNDARY     55   LAYER   1   ROW     4   COL    10   RATE     730.000    
 BOUNDARY     56   LAYER   1   ROW     4   COL    11   RATE     730.000    
 BOUNDARY     57   LAYER   1   ROW     4   COL    12   RATE     730.000    
 BOUNDARY     58   LAYER   1   ROW     4   COL    13   RATE     730.000    
 BOUNDARY     59   LAYER   1   ROW     4   COL    14   RATE     730.000    
 BOUNDARY     60   LAYER   1   ROW     4   COL    15   RATE     730.000    
 BOUNDARY     61   LAYER   1   ROW     5   COL     1   RATE     730.000    
 BOUNDARY     62   LAYER   1   ROW     5   COL     2   RATE     730.000    
 BOUNDARY     63   LAYER   1   ROW     5   COL     3   RATE     730.000    
 BOUNDARY     64   LAYER   1   ROW     5   COL     4   RATE     730.000    
 BOUNDARY     65   LAYER   1   ROW     5   COL     5   RATE     730.000    
 BOUNDARY     66   LAYER   1   ROW     5   COL     6   RATE     730.000    
 BOUNDARY     67   LAYER   1   ROW     5   COL     7   RATE     730.000    
 BOUNDARY     68   LAYER   1   ROW     5   COL     8   RATE     730.000    
 BOUNDARY     69   LAYER   1   ROW     5   COL     9   RATE     730.000    
 BOUNDARY     70   LAYER   1   ROW     5   COL    10   RATE     730.000    
 BOUNDARY     71   LAYER   1   ROW     5   COL    11   RATE     730.000    
 BOUNDARY     72   LAYER   1   ROW     5   COL    12   RATE     730.000    
 BOUNDARY     73   LAYER   1   ROW     5   COL    13   RATE     730.000    
 BOUNDARY     74   LAYER   1   ROW     5   COL    14   RATE     730.000    
 BOUNDARY     75   LAYER   1   ROW     5   COL    15   RATE     730.000    
 BOUNDARY     76   LAYER   1   ROW     6   COL     1   RATE     730.000    
 BOUNDARY     77   LAYER   1   ROW     6   COL     2   RATE     730.000    
 BOUNDARY     78   LAYER   1   ROW     6   COL     3   RATE     730.000    
 BOUNDARY     79   LAYER   1   ROW     6   COL     4   RATE     730.000    
 BOUNDARY     80   LAYER   1   ROW     6   COL     5   RATE     730.000    
 BOUNDARY     81   LAYER   1   ROW     6   COL     6   RATE     730.000    
 BOUNDARY     82   LAYER   1   ROW     6   COL     7   RATE     730.000    
 BOUNDARY     83   LAYER   1   ROW     6   COL     8   RATE     730.000    
 BOUNDARY     84   LAYER   1   ROW     6   COL     9   RATE     730.000    
 BOUNDARY     85   LAYER   1   ROW     6   COL    10   RATE     730.000    
 BOUNDARY     86   LAYER   1   ROW     6   COL    11   RATE     730.000    
 BOUNDARY     87   LAYER   1   ROW     6   COL    12   RATE     730.000    
 BOUNDARY     88   LAYER   1   ROW     6   COL    13   RATE     730.000    
 BOUNDARY     89   LAYER   1   ROW     6   COL    14   RATE     730.000    
 BOUNDARY     90   LAYER   1   ROW     6   COL    15   RATE     730.000    
 BOUNDARY     91   LAYER   1   ROW     7   COL     1   RATE     730.000    
 BOUNDARY     92   LAYER   1   ROW     7   COL     2   RATE     730.000    
 BOUNDARY     93   LAYER   1   ROW     7   COL     3   RATE     730.000    
 BOUNDARY     94   LAYER   1   ROW     7   COL     4   RATE     730.000    
 BOUNDARY     95   LAYER   1   ROW     7   COL     5   RATE     730.000    
 BOUNDARY     96   LAYER   1   ROW     7   COL     6   RATE     730.000    
 BOUNDARY     97   LAYER   1   ROW     7   COL     7   RATE     730.000    
 BOUNDARY     98   LAYER   1   ROW     7   COL     8   RATE     730.000    
 BOUNDARY     99   LAYER   1   ROW     7   COL     9   RATE     730.000    
 BOUNDARY    100   LAYER   1   ROW     7   COL    10   RATE     730.000    
 BOUNDARY    101   LAYER   1   ROW     7   COL    11   RATE     730.000    
 BOUNDARY    102   LAYER   1   ROW     7   COL    12   RATE     730.000    
 BOUNDARY    103   LAYER   1   ROW     7   COL    13   RATE     730.000    
 BOUNDARY    104   LAYER   1   ROW     7   COL    14   RATE     730.000    
 BOUNDARY    105   LAYER   1   ROW     7   COL    15   RATE     730.000    
 BOUNDARY    106   LAYER   1   ROW     8   COL     1   RATE     730.000    
 BOUNDARY    107   LAYER   1   ROW     8   COL     2   RATE     730.000    
 BOUNDARY    108   LAYER   1   ROW     8   COL     3   RATE     730.000    
 BOUNDARY    109   LAYER   1   ROW     8   COL     4   RATE     730.000    
 BOUNDARY    110   LAYER   1   ROW     8   COL     5   RATE     730.000    
 BOUNDARY    111   LAYER   1   ROW     8   COL     6   RATE     730.000    
 BOUNDARY    112   LAYER   1   ROW     8   COL     7   RATE     730.000    
 BOUNDARY    113   LAYER   1   ROW     8   COL     8   RATE     730.000    
 BOUNDARY    114   LAYER   1   ROW     8   COL     9   RATE     730.000    
 BOUNDARY    115   LAYER   1   ROW     8   COL    10   RATE     730.000    
 BOUNDARY    116   LAYER   1   ROW     8   COL    11   RATE     730.000    
 BOUNDARY    117   LAYER   1   ROW     8   COL    12   RATE     730.000    
 BOUNDARY    118   LAYER   1   ROW     8   COL    13   RATE     730.000    
 BOUNDARY    119   LAYER   1   ROW     8   COL    14   RATE     730.000    
 BOUNDARY    120   LAYER   1   ROW     8   COL    15   RATE     730.000    
 BOUNDARY    121   LAYER   1   ROW     9   COL     1   RATE     730.000    
 BOUNDARY    122   LAYER   1   ROW     9   COL     2   RATE     730.000    
 BOUNDARY    123   LAYER   1   ROW     9   COL     3   RATE     730.000    
 BOUNDARY    124   LAYER   1   ROW     9   COL     4   RATE     730.000    
 BOUNDARY    125   LAYER   1   ROW     9   COL     5   RATE     730.000    
 BOUNDARY    126   LAYER   1   ROW     9   COL     6   RATE     730.000    
 BOUNDARY    127   LAYER   1   ROW     9   COL     7   RATE     730.000    
 BOUNDARY    128   LAYER   1   ROW     9   COL     8   RATE     730.000    
 BOUNDARY    129   LAYER   1   ROW     9   COL     9   RATE     730.000    
 BOUNDARY    130   LAYER   1   ROW     9   COL    10   RATE     730.000    
 BOUNDARY    131   LAYER   1   ROW     9   COL    11   RATE     730.000    
 BOUNDARY    132   LAYER   1   ROW     9   COL    12   RATE     730.000    
 BOUNDARY    133   LAYER   1   ROW     9   COL    13   RATE     730.000    
 BOUNDARY    134   LAYER   1   ROW     9   COL    14   RATE     730.000    
 BOUNDARY    135   LAYER   1   ROW     9   COL    15   RATE     730.000    
 BOUNDARY    136   LAYER   1   ROW    10   COL     1   RATE     730.000    
 BOUNDARY    137   LAYER   1   ROW    10   COL     2   RATE     730.000    
 BOUNDARY    138   LAYER   1   ROW    10   COL     3   RATE     730.000    
 BOUNDARY    139   LAYER   1   ROW    10   COL     4   RATE     730.000    
 BOUNDARY    140   LAYER   1   ROW    10   COL     5   RATE     730.000    
 BOUNDARY    141   LAYER   1   ROW    10   COL     6   RATE     730.000    
 BOUNDARY    142   LAYER   1   ROW    10   COL     7   RATE     730.000    
 BOUNDARY    143   LAYER   1   ROW    10   COL     8   RATE     730.000    
 BOUNDARY    144   LAYER   1   ROW    10   COL     9   RATE     730.000    
 BOUNDARY    145   LAYER   1   ROW    10   COL    10   RATE     730.000    
 BOUNDARY    146   LAYER   1   ROW    10   COL    11   RATE     730.000    
 BOUNDARY    147   LAYER   1   ROW    10   COL    12   RATE     730.000    
 BOUNDARY    148   LAYER   1   ROW    10   COL    13   RATE     730.000    
 BOUNDARY    149   LAYER   1   ROW    10   COL    14   RATE     730.000    
 BOUNDARY    150   LAYER   1   ROW    10   COL    15   RATE     730.000    
 UBDSV4 SAVING ET SEGS          ON UNIT   1016 AT TIME STEP      1, STRESS PERIOD      5

 ET SEGS            PERIOD  5   STEP  1
 BOUNDARY      1   LAYER   1   ROW     1   COL     1   RATE    -2.81368    
 BOUNDARY      2   LAYER   1   ROW     1   COL     2   RATE    -9.72370    
 BOUNDARY      3   LAYER   1   ROW     1   COL     3   RATE    -61.3058    
 BOUNDARY      4   LAYER   1   ROW     1   COL     4   RATE    -100.625    
 BOUNDARY      5   LAYER   1   ROW     1   COL     5   RATE    -100.625    
 BOUNDARY      6   LAYER   1   ROW     1   COL     6   RATE    -100.625    
 BOUNDARY      7   LAYER   1   ROW     1   COL     7   RATE    -100.625    
 BOUNDARY      8   LAYER   1   ROW     1   COL     8   RATE    -100.625    
 BOUNDARY      9   LAYER   1   ROW     1   COL     9   RATE    -100.625    
 BOUNDARY     10   LAYER   1   ROW     1   COL    10   RATE    -100.625    
 BOUNDARY     11   LAYER   1   ROW     1   COL    11   RATE    -100.625    
 BOUNDARY     12   LAYER   1   ROW     1   COL    12   RATE    -19.2569    
 BOUNDARY     13   LAYER   1   ROW     1   COL    13   RATE     0.00000    
 BOUNDARY     14   LAYER   1   ROW     1   COL    14   RATE     0.00000    
 BOUNDARY     15   LAYER   1   ROW     1   COL    15   RATE     0.00000    
 BOUNDARY     16   LAYER   1   ROW     2   COL     1   RATE     0.00000    
 BOUNDARY     17   LAYER   1   ROW     2   COL     2   RATE    -5.16270    
 BOUNDARY     18   LAYER   1   ROW     2   COL     3   RATE    -32.8822    
 BOUNDARY     19   LAYER   1   ROW     2   COL     4   RATE    -100.625    
 BOUNDARY     20   LAYER   1   ROW     2   COL     5   RATE    -100.625    
 BOUNDARY     21   LAYER   1   ROW     2   COL     6   RATE    -100.625    
 BOUNDARY     22   LAYER   1   ROW     2   COL     7   RATE    -100.625    
 BOUNDARY     23   LAYER   1   ROW     2   COL     8   RATE    -100.625    
 BOUNDARY     24   LAYER   1   ROW     2   COL     9   RATE    -100.625    
 BOUNDARY     25   LAYER   1   ROW     2   COL    10   RATE    -100.625    
 BOUNDARY     26   LAYER   1   ROW     2   COL    11   RATE    -100.625    
 BOUNDARY     27   LAYER   1   ROW     2   COL    12   RATE    -21.0115    
 BOUNDARY     28   LAYER   1   ROW     2   COL    13   RATE   -0.796414    
 BOUNDARY     29   LAYER   1   ROW     2   COL    14   RATE     0.00000    
 BOUNDARY     30   LAYER   1   ROW     2   COL    15   RATE     0.00000    
 BOUNDARY     31   LAYER   1   ROW     3   COL     1   RATE     0.00000    
 BOUNDARY     32   LAYER   1   ROW     3   COL     2   RATE     0.00000    
 BOUNDARY     33   LAYER   1   ROW     3   COL     3   RATE    -24.6880    
 BOUNDARY     34   LAYER   1   ROW     3   COL     4   RATE    -100.625    
 BOUNDARY     35   LAYER   1   ROW     3   COL     5   RATE    -100.625    
 BOUNDARY     36   LAYER   1   ROW     3   COL     6   RATE    -100.625    
 BOUNDARY     37   LAYER   1   ROW     3   COL     7   RATE    -100.625    
 BOUNDARY     38   LAYER   1   ROW     3   COL     8   RATE    -100.625    
 BOUNDARY     39   LAYER   1   ROW     3   COL     9   RATE    -100.625    
 BOUNDARY     40   LAYER   1   ROW     3   COL    10   RATE    -100.625    
 BOUNDARY     41   LAYER   1   ROW     3   COL    11   RATE    -100.625    
 BOUNDARY     42   LAYER   1   ROW     3   COL    12   RATE    -23.9693    
 BOUNDARY     43   LAYER   1   ROW     3   COL    13   RATE    -2.60245    
 BOUNDARY     44   LAYER   1   ROW     3   COL    14   RATE     0.00000    
 BOUNDARY     45   LAYER   1   ROW     3   COL    15   RATE     0.00000    
 BOUNDARY     46   LAYER   1   ROW     4   COL     1   RATE     0.00000    
 BOUNDARY     47   LAYER   1   ROW     4   COL     2   RATE    -3.64517    
 BOUNDARY     48   LAYER   1   ROW     4   COL     3   RATE    -28.6117    
 BOUNDARY     49   LAYER   1   ROW     4   COL     4   RATE    -100.625    
 BOUNDARY     50   LAYER   1   ROW     4   COL     5   RATE    -100.625    
 BOUNDARY     51   LAYER   1   ROW     4   COL     6   RATE    -100.625    
 BOUNDARY     52   LAYER   1   ROW     4   COL     7   RATE    -100.625    
 BOUNDARY     53   LAYER   1   ROW     4   COL     8   RATE    -100.625    
 BOUNDARY     54   LAYER   1   ROW     4   COL     9   RATE    -100.625    
 BOUNDARY     55   LAYER   1   ROW     4   COL    10   RATE    -100.625    
 BOUNDARY     56   LAYER   1   ROW     4   COL    11   RATE    -100.625    
 BOUNDARY     57   LAYER   1   ROW     4   COL    12   RATE    -26.7774    
 BOUNDARY     58   LAYER   1   ROW     4   COL    13   RATE    -4.06392    
 BOUNDARY     59   LAYER   1   ROW     4   COL    14   RATE     0.00000    
 BOUNDARY     60   LAYER   1   ROW     4   COL    15   RATE     0.00000    
 BOUNDARY     61   LAYER   1   ROW     5   COL     1   RATE     0.00000    
 BOUNDARY     62   LAYER   1   ROW     5   COL     2   RATE    -6.64669    
 BOUNDARY     63   LAYER   1   ROW     5   COL     3   RATE    -42.8972    
 BOUNDARY     64   LAYER   1   ROW     5   COL     4   RATE    -100.625    
 BOUNDARY     65   LAYER   1   ROW     5   COL     5   RATE    -100.625    
 BOUNDARY     66   LAYER   1   ROW     5   COL     6   RATE    -100.625    
 BOUNDARY     67   LAYER   1   ROW     5   COL     7   RATE    -100.625    
 BOUNDARY     68   LAYER   1   ROW     5   COL     8   RATE    -100.625    
 BOUNDARY     69   LAYER   1   ROW     5   COL     9   RATE    -100.625    
 BOUNDARY     70   LAYER   1   ROW     5   COL    10   RATE    -100.625    
 BOUNDARY     71   LAYER   1   ROW     5   COL    11   RATE    -100.625    
 BOUNDARY     72   LAYER   1   ROW     5   COL    12   RATE    -28.7071    
 BOUNDARY     73   LAYER   1   ROW     5   COL    13   RATE    -4.95428    
 BOUNDARY     74   LAYER   1   ROW     5   COL    14   RATE     0.00000    
 BOUNDARY     75   LAYER   1   ROW     5   COL    15   RATE     0.00000    
 BOUNDARY     76   LAYER   1   ROW     6   COL     1   RATE     0.00000    
 BOUNDARY     77   LAYER   1   ROW     6   COL     2   RATE    -5.19644    
 BOUNDARY     78   LAYER   1   ROW     6   COL     3   RATE    -46.7641    
 BOUNDARY     79   LAYER   1   ROW     6   COL     4   RATE    -100.625    
 BOUNDARY     80   LAYER   1   ROW     6   COL     5   RATE    -100.625    
 BOUNDARY     81   LAYER   1   ROW     6   COL     6   RATE    -100.625    
 BOUNDARY     82   LAYER   1   ROW     6   COL     7   RATE    -100.625    
 BOUNDARY     83   LAYER   1   ROW     6   COL     8   RATE    -100.625    
 BOUNDARY     84   LAYER   1   ROW     6   COL     9   RATE    -100.625    
 BOUNDARY     85   LAYER   1   ROW     6   COL    10   RATE    -100.625    
 BOUNDARY     86   LAYER   1   ROW     6   COL    11   RATE    -100.625    
 BOUNDARY     87   LAYER   1   ROW     6   COL    12   RATE    -29.3555    
 BOUNDARY     88   LAYER   1   ROW     6   COL    13   RATE    -4.90565    
 BOUNDARY     89   LAYER   1   ROW     6   COL    14   RATE     0.00000    
 BOUNDARY     90   LAYER   1   ROW     6   COL    15   RATE     0.00000    
 BOUNDARY     91   LAYER   1   ROW     7   COL     1   RATE     0.00000    
 BOUNDARY     92   LAYER   1   ROW     7   COL     2   RATE    -1.64428    
 BOUNDARY     93   LAYER   1   ROW     7   COL     3   RATE    -53.7446    
 BOUNDARY     94   LAYER   1   ROW     7   COL     4   RATE    -100.625    
 BOUNDARY     95   LAYER   1   ROW     7   COL     5   RATE    -100.625    
 BOUNDARY     96   LAYER   1   ROW     7   COL     6   RATE    -100.625    
 BOUNDARY     97   LAYER   1   ROW     7   COL     7   RATE    -100.625    
 BOUNDARY     98   LAYER   1   ROW     7   COL     8   RATE    -100.625    
 BOUNDARY     99   LAYER   1   ROW     7   COL     9   RATE    -100.625    
 BOUNDARY    100   LAYER   1   ROW     7   COL    10   RATE    -100.625    
 BOUNDARY    101   LAYER   1   ROW     7   COL    11   RATE    -100.625    
 BOUNDARY    102   LAYER   1   ROW     7   COL    12   RATE    -29.2084    
 BOUNDARY    103   LAYER   1   ROW     7   COL    13   RATE    -4.18318    
 BOUNDARY    104   LAYER   1   ROW     7   COL    14   RATE     0.00000    
 BOUNDARY    105   LAYER   1   ROW     7   COL    15   RATE     0.00000    
 BOUNDARY    106   LAYER   1   ROW     8   COL     1   RATE     0.00000    
 BOUNDARY    107   LAYER   1   ROW     8   COL     2   RATE    -13.5785    
 BOUNDARY    108   LAYER   1   ROW     8   COL     3   RATE    -100.625    
 BOUNDARY    109   LAYER   1   ROW     8   COL     4   RATE    -100.625    
 BOUNDARY    110   LAYER   1   ROW     8   COL     5   RATE    -100.625    
 BOUNDARY    111   LAYER   1   ROW     8   COL     6   RATE    -100.625    
 BOUNDARY    112   LAYER   1   ROW     8   COL     7   RATE    -100.625    
 BOUNDARY    113   LAYER   1   ROW     8   COL     8   RATE    -100.625    
 BOUNDARY    114   LAYER   1   ROW     8   COL     9   RATE    -100.625    
 BOUNDARY    115   LAYER   1   ROW     8   COL    10   RATE    -100.625    
 BOUNDARY    116   LAYER   1   ROW     8   COL    11   RATE    -100.625    
 BOUNDARY    117   LAYER   1   ROW     8   COL    12   RATE    -29.6272    
 BOUNDARY    118   LAYER   1   ROW     8   COL    13   RATE    -4.21371    
 BOUNDARY    119   LAYER   1   ROW     8   COL    14   RATE     0.00000    
 BOUNDARY    120   LAYER   1   ROW     8   COL    15   RATE     0.00000    
 BOUNDARY    121   LAYER   1   ROW     9   COL     1   RATE    -21.2296    
 BOUNDARY    122   LAYER   1   ROW     9   COL     2   RATE    -73.1526    
 BOUNDARY    123   LAYER   1   ROW     9   COL     3   RATE    -100.625    
 BOUNDARY    124   LAYER   1   ROW     9   COL     4   RATE    -100.625    
 BOUNDARY    125   LAYER   1   ROW     9   COL     5   RATE    -100.625    
 BOUNDARY    126   LAYER   1   ROW     9   COL     6   RATE    -100.625    
 BOUNDARY    127   LAYER   1   ROW     9   COL     7   RATE    -100.625    
 BOUNDARY    128   LAYER   1   ROW     9   COL     8   RATE    -100.625    
 BOUNDARY    129   LAYER   1   ROW     9   COL     9   RATE    -100.625    
 BOUNDARY    130   LAYER   1   ROW     9   COL    10   RATE    -100.625    
 BOUNDARY    131   LAYER   1   ROW     9   COL    11   RATE    -100.625    
 BOUNDARY    132   LAYER   1   ROW     9   COL    12   RATE    -33.2170    
 BOUNDARY    133   LAYER   1   ROW     9   COL    13   RATE    -5.07674    
 BOUNDARY    134   LAYER   1   ROW     9   COL    14   RATE     0.00000    
 BOUNDARY    135   LAYER   1   ROW     9   COL    15   RATE     0.00000    
 BOUNDARY    136   LAYER   1   ROW    10   COL     1   RATE    -81.3967    
 BOUNDARY    137   LAYER   1   ROW    10   COL     2   RATE    -100.625    
 BOUNDARY    138   LAYER   1   ROW    10   COL     3   RATE    -100.625    
 BOUNDARY    139   LAYER   1   ROW    10   COL     4   RATE    -100.625    
 BOUNDARY    140   LAYER   1   ROW    10   COL     5   RATE    -100.625    
 BOUNDARY    141   LAYER   1   ROW    10   COL     6   RATE    -100.625    
 BOUNDARY    142   LAYER   1   ROW    10   COL     7   RATE    -100.625    
 BOUNDARY    143   LAYER   1   ROW    10   COL     8   RATE    -100.625    
 BOUNDARY    144   LAYER   1   ROW    10   COL     9   RATE    -100.625    
 BOUNDARY    145   LAYER   1   ROW    10   COL    10   RATE    -100.625    
 BOUNDARY    146   LAYER   1   ROW    10   COL    11   RATE    -100.625    
 BOUNDARY    147   LAYER   1   ROW    10   COL    12   RATE    -37.4708    
 BOUNDARY    148   LAYER   1   ROW    10   COL    13   RATE    -5.62658    
 BOUNDARY    149   LAYER   1   ROW    10   COL    14   RATE     0.00000    
 BOUNDARY    150   LAYER   1   ROW    10   COL    15   RATE     0.00000    

 HEAD WILL BE SAVED ON UNIT 1017 AT END OF TIME STEP    1, STRESS PERIOD    5
WEL   no.    1 value from time series:   0.0000     for time:  92.00     to  93.00    
WEL   no.    2 value from time series:   0.0000     for time:  92.00     to  93.00    
RIV   no.    1 value from time series:   101.00     for time:  92.00     to  93.00    
RIV   no.    2 value from time series:   101.00     for time:  92.00     to  93.00    
RIV   no.    3 value from time series:   111.50     for time:  92.00     to  93.00    
RIV   no.    4 value from time series:   111.50     for time:  92.00     to  93.00    
RIV   no.    5 value from time series:   115.10     for time:  92.00     to  93.00    
RIV   no.    6 value from time series:   115.10     for time:  92.00     to  93.00    
RIV   no.    7 value from time series:   104.00     for time:  92.00     to  93.00    
RIV   no.    8 value from time series:   104.00     for time:  92.00     to  93.00    
RIV   no.    9 value from time series:   113.50     for time:  92.00     to  93.00    
RIV   no.   10 value from time series:   113.50     for time:  92.00     to  93.00    
WEL   no.    1 value from time series:   0.0000     for time:  92.00     to  93.00    
WEL   no.    2 value from time series:   0.0000     for time:  92.00     to  93.00    
RIV   no.    1 value from time series:   101.00     for time:  92.00     to  93.00    
RIV   no.    2 value from time series:   101.00     for time:  92.00     to  93.00    
RIV   no.    3 value from time series:   111.50     for time:  92.00     to  93.00    
RIV   no.    4 value from time series:   111.50     for time:  92.00     to  93.00    
RIV   no.    5 value from time series:   115.10     for time:  92.00     to  93.00    
RIV   no.    6 value from time series:   115.10     for time:  92.00     to  93.00    
RIV   no.    7 value from time series:   104.00     for time:  92.00     to  93.00    
RIV   no.    8 value from time series:   104.00     for time:  92.00     to  93.00    
RIV   no.    9 value from time series:   113.50     for time:  92.00     to  93.00    
RIV   no.   10 value from time series:   113.50     for time:  92.00     to  93.00    

 OUTPUT CONTROL FOR STRESS PERIOD    5   TIME STEP    2
    SAVE BUDGET
    SAVE HEAD
    SAVE HEAD FOR ALL LAYERS
 UBDSV1 SAVING          STORAGE ON UNIT   1016 AT TIME STEP      2, STRESS PERIOD      5
 UBDSV1 SAVING FLOW RIGHT FACE  ON UNIT   1016 AT TIME STEP      2, STRESS PERIOD      5
 UBDSV1 SAVING FLOW FRONT FACE  ON UNIT   1016 AT TIME STEP      2, STRESS PERIOD      5
 UBDSV1 SAVING FLOW LOWER FACE  ON UNIT   1016 AT TIME STEP      2, STRESS PERIOD      5
 UBDSV4 SAVING WELLS NEAR RIVER ON UNIT   1016 AT TIME STEP      2, STRESS PERIOD      5

 WELLS NEAR RIVER   PERIOD  5   STEP  2
 BOUNDARY      1   LAYER   2   ROW     8   COL     4   RATE     0.00000      WELL_2
 BOUNDARY      2   LAYER   2   ROW     3   COL     4   RATE     0.00000      WELL_1
 UBDSV4 SAVING RIVER            ON UNIT   1016 AT TIME STEP      2, STRESS PERIOD      5

 RIVER              PERIOD  5   STEP  2
 BOUNDARY      1   LAYER   1   ROW     1   COL    15   RATE    -4875.29    
 BOUNDARY      2   LAYER   1   ROW     2   COL    15   RATE    -5999.18      RIV2
 BOUNDARY      3   LAYER   1   ROW     3   COL    15   RATE    -2265.04      RIV3
 BOUNDARY      4   LAYER   1   ROW     4   COL    15   RATE    -3728.22    
 BOUNDARY      5   LAYER   1   ROW     5   COL    15   RATE    -2366.60    
 BOUNDARY      6   LAYER   1   ROW     6   COL    15   RATE    -1714.61    
 BOUNDARY      7   LAYER   1   ROW     7   COL    15   RATE    -6196.33      RIVX
 BOUNDARY      8   LAYER   1   ROW     8   COL    15   RATE    -6043.88      RIVX
 BOUNDARY      9   LAYER   1   ROW     9   COL    15   RATE    -2253.16      RIVX
 BOUNDARY     10   LAYER   1   ROW    10   COL    15   RATE    -3157.45    

 GHB LAKES          PERIOD  5   STEP  2
 BOUNDARY      1   LAYER   1   ROW     3   COL     1   RATE    -14712.6    
 BOUNDARY      2   LAYER   1   ROW     7   COL     1   RATE    -2035.20      GHB2_UPPER
 BOUNDARY      3   LAYER   1   ROW     7   COL     1   RATE    -13304.7      GHB2_LOWER
 UBDSV4 SAVING RECHARGE         ON UNIT   1016 AT TIME STEP      2, STRESS PERIOD      5

 RECHARGE           PERIOD  5   STEP  2
 BOUNDARY      1   LAYER   1   ROW     1   COL     1   RATE     733.333    
 BOUNDARY      2   LAYER   1   ROW     1   COL     2   RATE     733.333    
 BOUNDARY      3   LAYER   1   ROW     1   COL     3   RATE     733.333    
 BOUNDARY      4   LAYER   1   ROW     1   COL     4   RATE     733.333    
 BOUNDARY      5   LAYER   1   ROW     1   COL     5   RATE     733.333    
 BOUNDARY      6   LAYER   1   ROW     1   COL     6   RATE     733.333    
 BOUNDARY      7   LAYER   1   ROW     1   COL     7   RATE     733.333    
 BOUNDARY      8   LAYER   1   ROW     1   COL     8   RATE     733.333    
 BOUNDARY      9   LAYER   1   ROW     1   COL     9   RATE     733.333    
 BOUNDARY     10   LAYER   1   ROW     1   COL    10   RATE     733.333    
 BOUNDARY     11   LAYER   1   ROW     1   COL    11   RATE     733.333    
 BOUNDARY     12   LAYER   1   ROW     1   COL    12   RATE     733.333    
 BOUNDARY     13   LAYER   1   ROW     1   COL    13   RATE     733.333    
 BOUNDARY     14   LAYER   1   ROW     1   COL    14   RATE     733.333    
 BOUNDARY     15   LAYER   1   ROW     1   COL    15   RATE     733.333    
 BOUNDARY     16   LAYER   1   ROW     2   COL     1   RATE     733.333    
 BOUNDARY     17   LAYER   1   ROW     2   COL     2   RATE     733.333    
 BOUNDARY     18   LAYER   1   ROW     2   COL     3   RATE     733.333    
 BOUNDARY     19   LAYER   1   ROW     2   COL     4   RATE     733.333    
 BOUNDARY     20   LAYER   1   ROW     2   COL     5   RATE     733.333    
 BOUNDARY     21   LAYER   1   ROW     2   COL     6   RATE     733.333    
 BOUNDARY     22   LAYER   1   ROW     2   COL     7   RATE     733.333    
 BOUNDARY     23   LAYER   1   ROW     2   COL     8   RATE     733.333    
 BOUNDARY     24   LAYER   1   ROW     2   COL     9   RATE     733.333    
 BOUNDARY     25   LAYER   1   ROW     2   COL    10   RATE     733.333    
 BOUNDARY     26   LAYER   1   ROW     2   COL    11   RATE     733.333    
 BOUNDARY     27   LAYER   1   ROW     2   COL    12   RATE     733.333    
 BOUNDARY     28   LAYER   1   ROW     2   COL    13   RATE     733.333    
 BOUNDARY     29   LAYER   1   ROW     2   COL    14   RATE     733.333    
 BOUNDARY     30   LAYER   1   ROW     2   COL    15   RATE     733.333    
 BOUNDARY     31   LAYER   1   ROW     3   COL     1   RATE     733.333    
 BOUNDARY     32   LAYER   1   ROW     3   COL     2   RATE     733.333    
 BOUNDARY     33   LAYER   1   ROW     3   COL     3   RATE     733.333    
 BOUNDARY     34   LAYER   1   ROW     3   COL     4   RATE     733.333    
 BOUNDARY     35   LAYER   1   ROW     3   COL     5   RATE     733.333    
 BOUNDARY     36   LAYER   1   ROW     3   COL     6   RATE     733.333    
 BOUNDARY     37   LAYER   1   ROW     3   COL     7   RATE     733.333    
 BOUNDARY     38   LAYER   1   ROW     3   COL     8   RATE     733.333    
 BOUNDARY     39   LAYER   1   ROW     3   COL     9   RATE     733.333    
 BOUNDARY     40   LAYER   1   ROW     3   COL    10   RATE     733.333    
 BOUNDARY     41   LAYER   1   ROW     3   COL    11   RATE     733.333    
 BOUNDARY     42   LAYER   1   ROW     3   COL    12   RATE     733.333    
 BOUNDARY     43   LAYER   1   ROW     3   COL    13   RATE     733.333    
 BOUNDARY     44   LAYER   1   ROW     3   COL    14   RATE     733.333    
 BOUNDARY     45   LAYER   1   ROW     3   COL    15   RATE     733.333    
 BOUNDARY     46   LAYER   1   ROW     4   COL     1   RATE     733.333    
 BOUNDARY     47   LAYER   1   ROW     4   COL     2   RATE     733.333    
 BOUNDARY     48   LAYER   1   ROW     4   COL     3   RATE     733.333    
 BOUNDARY     49   LAYER   1   ROW     4   COL     4   RATE     733.333    
 BOUNDARY     50   LAYER   1   ROW     4   COL     5   RATE     733.333    
 BOUNDARY     51   LAYER   1   ROW     4   COL     6   RATE     733.333    
 BOUNDARY     52   LAYER   1   ROW     4   COL     7   RATE     733.333    
 BOUNDARY     53   LAYER   1   ROW     4   COL     8   RATE     733.333    
 BOUNDARY     54   LAYER   1   ROW     4   COL     9   RATE     733.333    
 BOUNDARY     55   LAYER   1   ROW     4   COL    10   RATE     733.333    
 BOUNDARY     56   LAYER   1   ROW     4   COL    11   RATE     733.333    
 BOUNDARY     57   LAYER   1   ROW     4   COL    12   RATE     733.333    
 BOUNDARY     58   LAYER   1   ROW     4   COL    13   RATE     733.333    
 BOUNDARY     59   LAYER   1   ROW     4   COL    14   RATE     733.333    
 BOUNDARY     60   LAYER   1   ROW     4   COL    15   RATE     733.333    
 BOUNDARY     61   LAYER   1   ROW     5   COL     1   RATE     733.333    
 BOUNDARY     62   LAYER   1   ROW     5   COL     2   RATE     733.333    
 BOUNDARY     63   LAYER   1   ROW     5   COL     3   RATE     733.333    
 BOUNDARY     64   LAYER   1   ROW     5   COL     4   RATE     733.333    
 BOUNDARY     65   LAYER   1   ROW     5   COL     5   RATE     733.333    
 BOUNDARY     66   LAYER   1   ROW     5   COL     6   RATE     733.333    
 BOUNDARY     67   LAYER   1   ROW     5   COL     7   RATE     733.333    
 BOUNDARY     68   LAYER   1   ROW     5   COL     8   RATE     733.333    
 BOUNDARY     69   LAYER   1   ROW     5   COL     9   RATE     733.333    
 BOUNDARY     70   LAYER   1   ROW     5   COL    10   RATE     733.333    
 BOUNDARY     71   LAYER   1   ROW     5   COL    11   RATE     733.333    
 BOUNDARY     72   LAYER   1   ROW     5   COL    12   RATE     733.333    
 BOUNDARY     73   LAYER   1   ROW     5   COL    13   RATE     733.333    
 BOUNDARY     74   LAYER   1   ROW     5   COL    14   RATE     733.333    
 BOUNDARY     75   LAYER   1   ROW     5   COL    15   RATE     733.333    
 BOUNDARY     76   LAYER   1   ROW     6   COL     1   RATE     733.333    
 BOUNDARY     77   LAYER   1   ROW     6   COL     2   RATE     733.333    
 BOUNDARY     78   LAYER   1   ROW     6   COL     3   RATE     733.333    
 BOUNDARY     79   LAYER   1   ROW     6   COL     4   RATE     733.333    
 BOUNDARY     80   LAYER   1   ROW     6   COL     5   RATE     733.333    
 BOUNDARY     81   LAYER   1   ROW     6   COL     6   RATE     733.333    
 BOUNDARY     82   LAYER   1   ROW     6   COL     7   RATE     733.333    
 BOUNDARY     83   LAYER   1   ROW     6   COL     8   RATE     733.333    
 BOUNDARY     84   LAYER   1   ROW     6   COL     9   RATE     733.333    
 BOUNDARY     85   LAYER   1   ROW     6   COL    10   RATE     733.333    
 BOUNDARY     86   LAYER   1   ROW     6   COL    11   RATE     733.333    
 BOUNDARY     87   LAYER   1   ROW     6   COL    12   RATE     733.333    
 BOUNDARY     88   LAYER   1   ROW     6   COL    13   RATE     733.333    
 BOUNDARY     89   LAYER   1   ROW     6   COL    14   RATE     733.333    
 BOUNDARY     90   LAYER   1   ROW     6   COL    15   RATE     733.333    
 BOUNDARY     91   LAYER   1   ROW     7   COL     1   RATE     733.333    
 BOUNDARY     92   LAYER   1   ROW     7   COL     2   RATE     733.333    
 BOUNDARY     93   LAYER   1   ROW     7   COL     3   RATE     733.333    
 BOUNDARY     94   LAYER   1   ROW     7   COL     4   RATE     733.333    
 BOUNDARY     95   LAYER   1   ROW     7   COL     5   RATE     733.333    
 BOUNDARY     96   LAYER   1   ROW     7   COL     6   RATE     733.333    
 BOUNDARY     97   LAYER   1   ROW     7   COL     7   RATE     733.333    
 BOUNDARY     98   LAYER   1   ROW     7   COL     8   RATE     733.333    
 BOUNDARY     99   LAYER   1   ROW     7   COL     9   RATE     733.333    
 BOUNDARY    100   LAYER   1   ROW     7   COL    10   RATE     733.333    
 BOUNDARY    101   LAYER   1   ROW     7   COL    11   RATE     733.333    
 BOUNDARY    102   LAYER   1   ROW     7   COL    12   RATE     733.333    
 BOUNDARY    103   LAYER   1   ROW     7   COL    13   RATE     733.333    
 BOUNDARY    104   LAYER   1   ROW     7   COL    14   RATE     733.333    
 BOUNDARY    105   LAYER   1   ROW     7   COL    15   RATE     733.333    
 BOUNDARY    106   LAYER   1   ROW     8   COL     1   RATE     733.333    
 BOUNDARY    107   LAYER   1   ROW     8   COL     2   RATE     733.333    
 BOUNDARY    108   LAYER   1   ROW     8   COL     3   RATE     733.333    
 BOUNDARY    109   LAYER   1   ROW     8   COL     4   RATE     733.333    
 BOUNDARY    110   LAYER   1   ROW     8   COL     5   RATE     733.333    
 BOUNDARY    111   LAYER   1   ROW     8   COL     6   RATE     733.333    
 BOUNDARY    112   LAYER   1   ROW     8   COL     7   RATE     733.333    
 BOUNDARY    113   LAYER   1   ROW     8   COL     8   RATE     733.333    
 BOUNDARY    114   LAYER   1   ROW     8   COL     9   RATE     733.333    
 BOUNDARY    115   LAYER   1   ROW     8   COL    10   RATE     733.333    
 BOUNDARY    116   LAYER   1   ROW     8   COL    11   RATE     733.333    
 BOUNDARY    117   LAYER   1   ROW     8   COL    12   RATE     733.333    
 BOUNDARY    118   LAYER   1   ROW     8   COL    13   RATE     733.333    
 BOUNDARY    119   LAYER   1   ROW     8   COL    14   RATE     733.333    
 BOUNDARY    120   LAYER   1   ROW     8   COL    15   RATE     733.333    
 BOUNDARY    121   LAYER   1   ROW     9   COL     1   RATE     733.333    
 BOUNDARY    122   LAYER   1   ROW     9   COL     2   RATE     733.333    
 BOUNDARY    123   LAYER   1   ROW     9   COL     3   RATE     733.333    
 BOUNDARY    124   LAYER   1   ROW     9   COL     4   RATE     733.333    
 BOUNDARY    125   LAYER   1   ROW     9   COL     5   RATE     733.333    
 BOUNDARY    126   LAYER   1   ROW     9   COL     6   RATE     733.333    
 BOUNDARY    127   LAYER   1   ROW     9   COL     7   RATE     733.333    
 BOUNDARY    128   LAYER   1   ROW     9   COL     8   RATE     733.333    
 BOUNDARY    129   LAYER   1   ROW     9   COL     9   RATE     733.333    
 BOUNDARY    130   LAYER   1   ROW     9   COL    10   RATE     733.333    
 BOUNDARY    131   LAYER   1   ROW     9   COL    11   RATE     733.333    
 BOUNDARY    132   LAYER   1   ROW     9   COL    12   RATE     733.333    
 BOUNDARY    133   LAYER   1   ROW     9   COL    13   RATE     733.333    
 BOUNDARY    134   LAYER   1   ROW     9   COL    14   RATE     733.333    
 BOUNDARY    135   LAYER   1   ROW     9   COL    15   RATE     733.333    
 BOUNDARY    136   LAYER   1   ROW    10   COL     1   RATE     733.333    
 BOUNDARY    137   LAYER   1   ROW    10   COL     2   RATE     733.333    
 BOUNDARY    138   LAYER   1   ROW    10   COL     3   RATE     733.333    
 BOUNDARY    139   LAYER   1   ROW    10   COL     4   RATE     733.333    
 BOUNDARY    140   LAYER   1   ROW    10   COL     5   RATE     733.333    
 BOUNDARY    141   LAYER   1   ROW    10   COL     6   RATE     733.333    
 BOUNDARY    142   LAYER   1   ROW    10   COL     7   RATE     733.333    
 BOUNDARY    143   LAYER   1   ROW    10   COL     8   RATE     733.333    
 BOUNDARY    144   LAYER   1   ROW    10   COL     9   RATE     733.333    
 BOUNDARY    145   LAYER   1   ROW    10   COL    10   RATE     733.333    
 BOUNDARY    146   LAYER   1   ROW    10   COL    11   RATE     733.333    
 BOUNDARY    147   LAYER   1   ROW    10   COL    12   RATE     733.333    
 BOUNDARY    148   LAYER   1   ROW    10   COL    13   RATE     733.333    
 BOUNDARY    149   LAYER   1   ROW    10   COL    14   RATE     733.333    
 BOUNDARY    150   LAYER   1   ROW    10   COL    15   RATE     733.333    
 UBDSV4 SAVING ET SEGS          ON UNIT   1016 AT TIME STEP      2, STRESS PERIOD      5

 ET SEGS            PERIOD  5   STEP  2
 BOUNDARY      1   LAYER   1   ROW     1   COL     1   RATE    -2.84329    
 BOUNDARY      2   LAYER   1   ROW     1   COL     2   RATE    -9.78214    
 BOUNDARY      3   LAYER   1   ROW     1   COL     3   RATE    -61.8732    
 BOUNDARY      4   LAYER   1   ROW     1   COL     4   RATE    -101.042    
 BOUNDARY      5   LAYER   1   ROW     1   COL     5   RATE    -101.042    
 BOUNDARY      6   LAYER   1   ROW     1   COL     6   RATE    -101.042    
 BOUNDARY      7   LAYER   1   ROW     1   COL     7   RATE    -101.042    
 BOUNDARY      8   LAYER   1   ROW     1   COL     8   RATE    -101.042    
 BOUNDARY      9   LAYER   1   ROW     1   COL     9   RATE    -101.042    
 BOUNDARY     10   LAYER   1   ROW     1   COL    10   RATE    -101.042    
 BOUNDARY     11   LAYER   1   ROW     1   COL    11   RATE    -101.042    
 BOUNDARY     12   LAYER   1   ROW     1   COL    12   RATE    -19.3987    
 BOUNDARY     13   LAYER   1   ROW     1   COL    13   RATE     0.00000    
 BOUNDARY     14   LAYER   1   ROW     1   COL    14   RATE     0.00000    
 BOUNDARY     15   LAYER   1   ROW     1   COL    15   RATE     0.00000    
 BOUNDARY     16   LAYER   1   ROW     2   COL     1   RATE     0.00000    
 BOUNDARY     17   LAYER   1   ROW     2   COL     2   RATE    -5.20207    
 BOUNDARY     18   LAYER   1   ROW     2   COL     3   RATE    -33.3424    
 BOUNDARY     19   LAYER   1   ROW     2   COL     4   RATE    -101.042    
 BOUNDARY     20   LAYER   1   ROW     2   COL     5   RATE    -101.042    
 BOUNDARY     21   LAYER   1   ROW     2   COL     6   RATE    -101.042    
 BOUNDARY     22   LAYER   1   ROW     2   COL     7   RATE    -101.042    
 BOUNDARY     23   LAYER   1   ROW     2   COL     8   RATE    -101.042    
 BOUNDARY     24   LAYER   1   ROW     2   COL     9   RATE    -101.042    
 BOUNDARY     25   LAYER   1   ROW     2   COL    10   RATE    -101.042    
 BOUNDARY     26   LAYER   1   ROW     2   COL    11   RATE    -101.042    
 BOUNDARY     27   LAYER   1   ROW     2   COL    12   RATE    -21.1605    
 BOUNDARY     28   LAYER   1   ROW     2   COL    13   RATE   -0.817947    
 BOUNDARY     29   LAYER   1   ROW     2   COL    14   RATE     0.00000    
 BOUNDARY     30   LAYER   1   ROW     2   COL    15   RATE     0.00000    
 BOUNDARY     31   LAYER   1   ROW     3   COL     1   RATE     0.00000    
 BOUNDARY     32   LAYER   1   ROW     3   COL     2   RATE     0.00000    
 BOUNDARY     33   LAYER   1   ROW     3   COL     3   RATE    -24.8510    
 BOUNDARY     34   LAYER   1   ROW     3   COL     4   RATE    -101.042    
 BOUNDARY     35   LAYER   1   ROW     3   COL     5   RATE    -101.042    
 BOUNDARY     36   LAYER   1   ROW     3   COL     6   RATE    -101.042    
 BOUNDARY     37   LAYER   1   ROW     3   COL     7   RATE    -101.042    
 BOUNDARY     38   LAYER   1   ROW     3   COL     8   RATE    -101.042    
 BOUNDARY     39   LAYER   1   ROW     3   COL     9   RATE    -101.042    
 BOUNDARY     40   LAYER   1   ROW     3   COL    10   RATE    -101.042    
 BOUNDARY     41   LAYER   1   ROW     3   COL    11   RATE    -101.042    
 BOUNDARY     42   LAYER   1   ROW     3   COL    12   RATE    -24.1306    
 BOUNDARY     43   LAYER   1   ROW     3   COL    13   RATE    -2.63151    
 BOUNDARY     44   LAYER   1   ROW     3   COL    14   RATE     0.00000    
 BOUNDARY     45   LAYER   1   ROW     3   COL    15   RATE     0.00000    
 BOUNDARY     46   LAYER   1   ROW     4   COL     1   RATE     0.00000    
 BOUNDARY     47   LAYER   1   ROW     4   COL     2   RATE    -3.67810    
 BOUNDARY     48   LAYER   1   ROW     4   COL     3   RATE    -28.7907    
 BOUNDARY     49   LAYER   1   ROW     4   COL     4   RATE    -101.042    
 BOUNDARY     50   LAYER   1   ROW     4   COL     5   RATE    -101.042    
 BOUNDARY     51   LAYER   1   ROW     4   COL     6   RATE    -101.042    
 BOUNDARY     52   LAYER   1   ROW     4   COL     7   RATE    -101.042    
 BOUNDARY     53   LAYER   1   ROW     4   COL     8   RATE    -101.042    
 BOUNDARY     54   LAYER   1   ROW     4   COL     9   RATE    -101.042    
 BOUNDARY     55   LAYER   1   ROW     4   COL    10   RATE    -101.042    
 BOUNDARY     56   LAYER   1   ROW     4   COL    11   RATE    -101.042    
 BOUNDARY     57   LAYER   1   ROW     4   COL    12   RATE    -26.9501    
 BOUNDARY     58   LAYER   1   ROW     4   COL    13   RATE    -4.09889    
 BOUNDARY     59   LAYER   1   ROW     4   COL    14   RATE     0.00000    
 BOUNDARY     60   LAYER   1   ROW     4   COL    15   RATE     0.00000    
 BOUNDARY     61   LAYER   1   ROW     5   COL     1   RATE     0.00000    
 BOUNDARY     62   LAYER   1   ROW     5   COL     2   RATE    -6.69227    
 BOUNDARY     63   LAYER   1   ROW     5   COL     3   RATE    -43.3876    
 BOUNDARY     64   LAYER   1   ROW     5   COL     4   RATE    -101.042    
 BOUNDARY     65   LAYER   1   ROW     5   COL     5   RATE    -101.042    
 BOUNDARY     66   LAYER   1   ROW     5   COL     6   RATE    -101.042    
 BOUNDARY     67   LAYER   1   ROW     5   COL     7   RATE    -101.042    
 BOUNDARY     68   LAYER   1   ROW     5   COL     8   RATE    -101.042    
 BOUNDARY     69   LAYER   1   ROW     5   COL     9   RATE    -101.042    
 BOUNDARY     70   LAYER   1   ROW     5   COL    10   RATE    -101.042    
 BOUNDARY     71   LAYER   1   ROW     5   COL    11   RATE    -101.042    
 BOUNDARY     72   LAYER   1   ROW     5   COL    12   RATE    -28.8873    
 BOUNDARY     73   LAYER   1   ROW     5   COL    13   RATE    -4.99267    
 BOUNDARY     74   LAYER   1   ROW     5   COL    14   RATE     0.00000    
 BOUNDARY     75   LAYER   1   ROW     5   COL    15   RATE     0.00000    
 BOUNDARY     76   LAYER   1   ROW     6   COL     1   RATE     0.00000    
 BOUNDARY     77   LAYER   1   ROW     6   COL     2   RATE    -5.23562    
 BOUNDARY     78   LAYER   1   ROW     6   COL     3   RATE    -47.2679    
 BOUNDARY     79   LAYER   1   ROW     6   COL     4   RATE    -101.042    
 BOUNDARY     80   LAYER   1   ROW     6   COL     5   RATE    -101.042    
 BOUNDARY     81   LAYER   1   ROW     6   COL     6   RATE    -101.042    
 BOUNDARY     82   LAYER   1   ROW     6   COL     7   RATE    -101.042    
 BOUNDARY     83   LAYER   1   ROW     6   COL     8   RATE    -101.042    
 BOUNDARY     84   LAYER   1   ROW     6   COL     9   RATE    -101.042    
 BOUNDARY     85   LAYER   1   ROW     6   COL    10   RATE    -101.042    
 BOUNDARY     86   LAYER   1   ROW     6   COL    11   RATE    -101.042    
 BOUNDARY     87   LAYER   1   ROW     6   COL    12   RATE    -29.5382    
 BOUNDARY     88   LAYER   1   ROW     6   COL    13   RATE    -4.94374    
 BOUNDARY     89   LAYER   1   ROW     6   COL    14   RATE     0.00000    
 BOUNDARY     90   LAYER   1   ROW     6   COL    15   RATE     0.00000    
 BOUNDARY     91   LAYER   1   ROW     7   COL     1   RATE     0.00000    
 BOUNDARY     92   LAYER   1   ROW     7   COL     2   RATE    -1.66769    
 BOUNDARY     93   LAYER   1   ROW     7   COL     3   RATE    -54.2746    
 BOUNDARY     94   LAYER   1   ROW     7   COL     4   RATE    -101.042    
 BOUNDARY     95   LAYER   1   ROW     7   COL     5   RATE    -101.042    
 BOUNDARY     96   LAYER   1   ROW     7   COL     6   RATE    -101.042    
 BOUNDARY     97   LAYER   1   ROW     7   COL     7   RATE    -101.042    
 BOUNDARY     98   LAYER   1   ROW     7   COL     8   RATE    -101.042    
 BOUNDARY     99   LAYER   1   ROW     7   COL     9   RATE    -101.042    
 BOUNDARY    100   LAYER   1   ROW     7   COL    10   RATE    -101.042    
 BOUNDARY    101   LAYER   1   ROW     7   COL    11   RATE    -101.042    
 BOUNDARY    102   LAYER   1   ROW     7   COL    12   RATE    -29.3908    
 BOUNDARY    103   LAYER   1   ROW     7   COL    13   RATE    -4.21848    
 BOUNDARY    104   LAYER   1   ROW     7   COL    14   RATE     0.00000    
 BOUNDARY    105   LAYER   1   ROW     7   COL    15   RATE     0.00000    
 BOUNDARY    106   LAYER   1   ROW     8   COL     1   RATE     0.00000    
 BOUNDARY    107   LAYER   1   ROW     8   COL     2   RATE    -13.6936    
 BOUNDARY    108   LAYER   1   ROW     8   COL     3   RATE    -101.042    
 BOUNDARY    109   LAYER   1   ROW     8   COL     4   RATE    -101.042    
 BOUNDARY    110   LAYER   1   ROW     8   COL     5   RATE    -101.042    
 BOUNDARY    111   LAYER   1   ROW     8   COL     6   RATE    -101.042    
 BOUNDARY    112   LAYER   1   ROW     8   COL     7   RATE    -101.042    
 BOUNDARY    113   LAYER   1   ROW     8   COL     8   RATE    -101.042    
 BOUNDARY    114   LAYER   1   ROW     8   COL     9   RATE    -101.042    
 BOUNDARY    115   LAYER   1   ROW     8   COL    10   RATE    -101.042    
 BOUNDARY    116   LAYER   1   ROW     8   COL    11   RATE    -101.042    
 BOUNDARY    117   LAYER   1   ROW     8   COL    12   RATE    -29.8119    
 BOUNDARY    118   LAYER   1   ROW     8   COL    13   RATE    -4.24956    
 BOUNDARY    119   LAYER   1   ROW     8   COL    14   RATE     0.00000    
 BOUNDARY    120   LAYER   1   ROW     8   COL    15   RATE     0.00000    
 BOUNDARY    121   LAYER   1   ROW     9   COL     1   RATE    -21.3768    
 BOUNDARY    122   LAYER   1   ROW     9   COL     2   RATE    -73.7649    
 BOUNDARY    123   LAYER   1   ROW     9   COL     3   RATE    -101.042    
 BOUNDARY    124   LAYER   1   ROW     9   COL     4   RATE    -101.042    
 BOUNDARY    125   LAYER   1   ROW     9   COL     5   RATE    -101.042    
 BOUNDARY    126   LAYER   1   ROW     9   COL     6   RATE    -101.042    
 BOUNDARY    127   LAYER   1   ROW     9   COL     7   RATE    -101.042    
 BOUNDARY    128   LAYER   1   ROW     9   COL     8   RATE    -101.042    
 BOUNDARY    129   LAYER   1   ROW     9   COL     9   RATE    -101.042    
 BOUNDARY    130   LAYER   1   ROW     9   COL    10   RATE    -101.042    
 BOUNDARY    131   LAYER   1   ROW     9   COL    11   RATE    -101.042    
 BOUNDARY    132   LAYER   1   ROW     9   COL    12   RATE    -33.6808    
 BOUNDARY    133   LAYER   1   ROW     9   COL    13   RATE    -5.11664    
 BOUNDARY    134   LAYER   1   ROW     9   COL    14   RATE     0.00000    
 BOUNDARY    135   LAYER   1   ROW     9   COL    15   RATE     0.00000    
 BOUNDARY    136   LAYER   1   ROW    10   COL     1   RATE    -82.0406    
 BOUNDARY    137   LAYER   1   ROW    10   COL     2   RATE    -101.042    
 BOUNDARY    138   LAYER   1   ROW    10   COL     3   RATE    -101.042    
 BOUNDARY    139   LAYER   1   ROW    10   COL     4   RATE    -101.042    
 BOUNDARY    140   LAYER   1   ROW    10   COL     5   RATE    -101.042    
 BOUNDARY    141   LAYER   1   ROW    10   COL     6   RATE    -101.042    
 BOUNDARY    142   LAYER   1   ROW    10   COL     7   RATE    -101.042    
 BOUNDARY    143   LAYER   1   ROW    10   COL     8   RATE    -101.042    
 BOUNDARY    144   LAYER   1   ROW    10   COL     9   RATE    -101.042    
 BOUNDARY    145   LAYER   1   ROW    10   COL    10   RATE    -101.042    
 BOUNDARY    146   LAYER   1   ROW    10   COL    11   RATE    -101.042    
 BOUNDARY    147   LAYER   1   ROW    10   COL    12   RATE    -37.9523    
 BOUNDARY    148   LAYER   1   ROW    10   COL    13   RATE    -5.66903    
 BOUNDARY    149   LAYER   1   ROW    10   COL    14   RATE     0.00000    
 BOUNDARY    150   LAYER   1   ROW    10   COL    15   RATE     0.00000    

 HEAD WILL BE SAVED ON UNIT 1017 AT END OF TIME STEP    2, STRESS PERIOD    5
WEL   no.    1 value from time series:   0.0000     for time:  93.00     to  94.00    
WEL   no.    2 value from time series:   0.0000     for time:  93.00     to  94.00    
RIV   no.    1 value from time series:   101.00     for time:  93.00     to  94.00    
RIV   no.    2 value from time series:   101.00     for time:  93.00     to  94.00    
RIV   no.    3 value from time series:   111.50     for time:  93.00     to  94.00    
RIV   no.    4 value from time series:   111.50     for time:  93.00     to  94.00    
RIV   no.    5 value from time series:   115.10     for time:  93.00     to  94.00    
RIV   no.    6 value from time series:   115.10     for time:  93.00     to  94.00    
RIV   no.    7 value from time series:   104.00     for time:  93.00     to  94.00    
RIV   no.    8 value from time series:   104.00     for time:  93.00     to  94.00    
RIV   no.    9 value from time series:   113.50     for time:  93.00     to  94.00    
RIV   no.   10 value from time series:   113.50     for time:  93.00     to  94.00    
WEL   no.    1 value from time series:   0.0000     for time:  93.00     to  94.00    
WEL   no.    2 value from time series:   0.0000     for time:  93.00     to  94.00    
RIV   no.    1 value from time series:   101.00     for time:  93.00     to  94.00    
RIV   no.    2 value from time series:   101.00     for time:  93.00     to  94.00    
RIV   no.    3 value from time series:   111.50     for time:  93.00     to  94.00    
RIV   no.    4 value from time series:   111.50     for time:  93.00     to  94.00    
RIV   no.    5 value from time series:   115.10     for time:  93.00     to  94.00    
RIV   no.    6 value from time series:   115.10     for time:  93.00     to  94.00    
RIV   no.    7 value from time series:   104.00     for time:  93.00     to  94.00    
RIV   no.    8 value from time series:   104.00     for time:  93.00     to  94.00    
RIV   no.    9 value from time series:   113.50     for time:  93.00     to  94.00    
RIV   no.   10 value from time series:   113.50     for time:  93.00     to  94.00    

 OUTPUT CONTROL FOR STRESS PERIOD    5   TIME STEP    3
    SAVE BUDGET
    SAVE HEAD
    SAVE HEAD FOR ALL LAYERS
 UBDSV1 SAVING          STORAGE ON UNIT   1016 AT TIME STEP      3, STRESS PERIOD      5
 UBDSV1 SAVING FLOW RIGHT FACE  ON UNIT   1016 AT TIME STEP      3, STRESS PERIOD      5
 UBDSV1 SAVING FLOW FRONT FACE  ON UNIT   1016 AT TIME STEP      3, STRESS PERIOD      5
 UBDSV1 SAVING FLOW LOWER FACE  ON UNIT   1016 AT TIME STEP      3, STRESS PERIOD      5
 UBDSV4 SAVING WELLS NEAR RIVER ON UNIT   1016 AT TIME STEP      3, STRESS PERIOD      5

 WELLS NEAR RIVER   PERIOD  5   STEP  3
 BOUNDARY      1   LAYER   2   ROW     8   COL     4   RATE     0.00000      WELL_2
 BOUNDARY      2   LAYER   2   ROW     3   COL     4   RATE     0.00000      WELL_1
 UBDSV4 SAVING RIVER            ON UNIT   1016 AT TIME STEP      3, STRESS PERIOD      5

 RIVER              PERIOD  5   STEP  3
 BOUNDARY      1   LAYER   1   ROW     1   COL    15   RATE    -4878.71    
 BOUNDARY      2   LAYER   1   ROW     2   COL    15   RATE    -6002.72      RIV2
 BOUNDARY      3   LAYER   1   ROW     3   COL    15   RATE    -2268.65      RIV3
 BOUNDARY      4   LAYER   1   ROW     4   COL    15   RATE    -3731.89    
 BOUNDARY      5   LAYER   1   ROW     5   COL    15   RATE    -2370.20    
 BOUNDARY      6   LAYER   1   ROW     6   COL    15   RATE    -1718.16    
 BOUNDARY      7   LAYER   1   ROW     7   COL    15   RATE    -6199.99      RIVX
 BOUNDARY      8   LAYER   1   ROW     8   COL    15   RATE    -6047.65      RIVX
 BOUNDARY      9   LAYER   1   ROW     9   COL    15   RATE    -2257.03      RIVX
 BOUNDARY     10   LAYER   1   ROW    10   COL    15   RATE    -3161.44    

 GHB LAKES          PERIOD  5   STEP  3
 BOUNDARY      1   LAYER   1   ROW     3   COL     1   RATE    -14719.2    
 BOUNDARY      2   LAYER   1   ROW     7   COL     1   RATE    -2040.52      GHB2_UPPER
 BOUNDARY      3   LAYER   1   ROW     7   COL     1   RATE    -13306.6      GHB2_LOWER
 UBDSV4 SAVING RECHARGE         ON UNIT   1016 AT TIME STEP      3, STRESS PERIOD      5

 RECHARGE           PERIOD  5   STEP  3
 BOUNDARY      1   LAYER   1   ROW     1   COL     1   RATE     736.667    
 BOUNDARY      2   LAYER   1   ROW     1   COL     2   RATE     736.667    
 BOUNDARY      3   LAYER   1   ROW     1   COL     3   RATE     736.667    
 BOUNDARY      4   LAYER   1   ROW     1   COL     4   RATE     736.667    
 BOUNDARY      5   LAYER   1   ROW     1   COL     5   RATE     736.667    
 BOUNDARY      6   LAYER   1   ROW     1   COL     6   RATE     736.667    
 BOUNDARY      7   LAYER   1   ROW     1   COL     7   RATE     736.667    
 BOUNDARY      8   LAYER   1   ROW     1   COL     8   RATE     736.667    
 BOUNDARY      9   LAYER   1   ROW     1   COL     9   RATE     736.667    
 BOUNDARY     10   LAYER   1   ROW     1   COL    10   RATE     736.667    
 BOUNDARY     11   LAYER   1   ROW     1   COL    11   RATE     736.667    
 BOUNDARY     12   LAYER   1   ROW     1   COL    12   RATE     736.667    
 BOUNDARY     13   LAYER   1   ROW     1   COL    13   RATE     736.667    
 BOUNDARY     14   LAYER   1   ROW     1   COL    14   RATE     736.667    
 BOUNDARY     15   LAYER   1   ROW     1   COL    15   RATE     736.667    
 BOUNDARY     16   LAYER   1   ROW     2   COL     1   RATE     736.667    
 BOUNDARY     17   LAYER   1   ROW     2   COL     2   RATE     736.667    
 BOUNDARY     18   LAYER   1   ROW     2   COL     3   RATE     736.667    
 BOUNDARY     19   LAYER   1   ROW     2   COL     4   RATE     736.667    
 BOUNDARY     20   LAYER   1   ROW     2   COL     5   RATE     736.667    
 BOUNDARY     21   LAYER   1   ROW     2   COL     6   RATE     736.667    
 BOUNDARY     22   LAYER   1   ROW     2   COL     7   RATE     736.667    
 BOUNDARY     23   LAYER   1   ROW     2   COL     8   RATE     736.667    
 BOUNDARY     24   LAYER   1   ROW     2   COL     9   RATE     736.667    
 BOUNDARY     25   LAYER   1   ROW     2   COL    10   RATE     736.667    
 BOUNDARY     26   LAYER   1   ROW     2   COL    11   RATE     736.667    
 BOUNDARY     27   LAYER   1   ROW     2   COL    12   RATE     736.667    
 BOUNDARY     28   LAYER   1   ROW     2   COL    13   RATE     736.667    
 BOUNDARY     29   LAYER   1   ROW     2   COL    14   RATE     736.667    
 BOUNDARY     30   LAYER   1   ROW     2   COL    15   RATE     736.667    
 BOUNDARY     31   LAYER   1   ROW     3   COL     1   RATE     736.667    
 BOUNDARY     32   LAYER   1   ROW     3   COL     2   RATE     736.667    
 BOUNDARY     33   LAYER   1   ROW     3   COL     3   RATE     736.667    
 BOUNDARY     34   LAYER   1   ROW     3   COL     4   RATE     736.667    
 BOUNDARY     35   LAYER   1   ROW     3   COL     5   RATE     736.667    
 BOUNDARY     36   LAYER   1   ROW     3   COL     6   RATE     736.667    
 BOUNDARY     37   LAYER   1   ROW     3   COL     7   RATE     736.667    
 BOUNDARY     38   LAYER   1   ROW     3   COL     8   RATE     736.667    
 BOUNDARY     39   LAYER   1   ROW     3   COL     9   RATE     736.667    
 BOUNDARY     40   LAYER   1   ROW     3   COL    10   RATE     736.667    
 BOUNDARY     41   LAYER   1   ROW     3   COL    11   RATE     736.667    
 BOUNDARY     42   LAYER   1   ROW     3   COL    12   RATE     736.667    
 BOUNDARY     43   LAYER   1   ROW     3   COL    13   RATE     736.667    
 BOUNDARY     44   LAYER   1   ROW     3   COL    14   RATE     736.667    
 BOUNDARY     45   LAYER   1   ROW     3   COL    15   RATE     736.667    
 BOUNDARY     46   LAYER   1   ROW     4   COL     1   RATE     736.667    
 BOUNDARY     47   LAYER   1   ROW     4   COL     2   RATE     736.667    
 BOUNDARY     48   LAYER   1   ROW     4   COL     3   RATE     736.667    
 BOUNDARY     49   LAYER   1   ROW     4   COL     4   RATE     736.667    
 BOUNDARY     50   LAYER   1   ROW     4   COL     5   RATE     736.667    
 BOUNDARY     51   LAYER   1   ROW     4   COL     6   RATE     736.667    
 BOUNDARY     52   LAYER   1   ROW     4   COL     7   RATE     736.667    
 BOUNDARY     53   LAYER   1   ROW     4   COL     8   RATE     736.667    
 BOUNDARY     54   LAYER   1   ROW     4   COL     9   RATE     736.667    
 BOUNDARY     55   LAYER   1   ROW     4   COL    10   RATE     736.667    
 BOUNDARY     56   LAYER   1   ROW     4   COL    11   RATE     736.667    
 BOUNDARY     57   LAYER   1   ROW     4   COL    12   RATE     736.667    
 BOUNDARY     58   LAYER   1   ROW     4   COL    13   RATE     736.667    
 BOUNDARY     59   LAYER   1   ROW     4   COL    14   RATE     736.667    
 BOUNDARY     60   LAYER   1   ROW     4   COL    15   RATE     736.667    
 BOUNDARY     61   LAYER   1   ROW     5   COL     1   RATE     736.667    
 BOUNDARY     62   LAYER   1   ROW     5   COL     2   RATE     736.667    
 BOUNDARY     63   LAYER   1   ROW     5   COL     3   RATE     736.667    
 BOUNDARY     64   LAYER   1   ROW     5   COL     4   RATE     736.667    
 BOUNDARY     65   LAYER   1   ROW     5   COL     5   RATE     736.667    
 BOUNDARY     66   LAYER   1   ROW     5   COL     6   RATE     736.667    
 BOUNDARY     67   LAYER   1   ROW     5   COL     7   RATE     736.667    
 BOUNDARY     68   LAYER   1   ROW     5   COL     8   RATE     736.667    
 BOUNDARY     69   LAYER   1   ROW     5   COL     9   RATE     736.667    
 BOUNDARY     70   LAYER   1   ROW     5   COL    10   RATE     736.667    
 BOUNDARY     71   LAYER   1   ROW     5   COL    11   RATE     736.667    
 BOUNDARY     72   LAYER   1   ROW     5   COL    12   RATE     736.667    
 BOUNDARY     73   LAYER   1   ROW     5   COL    13   RATE     736.667    
 BOUNDARY     74   LAYER   1   ROW     5   COL    14   RATE     736.667    
 BOUNDARY     75   LAYER   1   ROW     5   COL    15   RATE     736.667    
 BOUNDARY     76   LAYER   1   ROW     6   COL     1   RATE     736.667    
 BOUNDARY     77   LAYER   1   ROW     6   COL     2   RATE     736.667    
 BOUNDARY     78   LAYER   1   ROW     6   COL     3   RATE     736.667    
 BOUNDARY     79   LAYER   1   ROW     6   COL     4   RATE     736.667    
 BOUNDARY     80   LAYER   1   ROW     6   COL     5   RATE     736.667    
 BOUNDARY     81   LAYER   1   ROW     6   COL     6   RATE     736.667    
 BOUNDARY     82   LAYER   1   ROW     6   COL     7   RATE     736.667    
 BOUNDARY     83   LAYER   1   ROW     6   COL     8   RATE     736.667    
 BOUNDARY     84   LAYER   1   ROW     6   COL     9   RATE     736.667    
 BOUNDARY     85   LAYER   1   ROW     6   COL    10   RATE     736.667    
 BOUNDARY     86   LAYER   1   ROW     6   COL    11   RATE     736.667    
 BOUNDARY     87   LAYER   1   ROW     6   COL    12   RATE     736.667    
 BOUNDARY     88   LAYER   1   ROW     6   COL    13   RATE     736.667    
 BOUNDARY     89   LAYER   1   ROW     6   COL    14   RATE     736.667    
 BOUNDARY     90   LAYER   1   ROW     6   COL    15   RATE     736.667    
 BOUNDARY     91   LAYER   1   ROW     7   COL     1   RATE     736.667    
 BOUNDARY     92   LAYER   1   ROW     7   COL     2   RATE     736.667    
 BOUNDARY     93   LAYER   1   ROW     7   COL     3   RATE     736.667    
 BOUNDARY     94   LAYER   1   ROW     7   COL     4   RATE     736.667    
 BOUNDARY     95   LAYER   1   ROW     7   COL     5   RATE     736.667    
 BOUNDARY     96   LAYER   1   ROW     7   COL     6   RATE     736.667    
 BOUNDARY     97   LAYER   1   ROW     7   COL     7   RATE     736.667    
 BOUNDARY     98   LAYER   1   ROW     7   COL     8   RATE     736.667    
 BOUNDARY     99   LAYER   1   ROW     7   COL     9   RATE     736.667    
 BOUNDARY    100   LAYER   1   ROW     7   COL    10   RATE     736.667    
 BOUNDARY    101   LAYER   1   ROW     7   COL    11   RATE     736.667    
 BOUNDARY    102   LAYER   1   ROW     7   COL    12   RATE     736.667    
 BOUNDARY    103   LAYER   1   ROW     7   COL    13   RATE     736.667    
 BOUNDARY    104   LAYER   1   ROW     7   COL    14   RATE     736.667    
 BOUNDARY    105   LAYER   1   ROW     7   COL    15   RATE     736.667    
 BOUNDARY    106   LAYER   1   ROW     8   COL     1   RATE     736.667    
 BOUNDARY    107   LAYER   1   ROW     8   COL     2   RATE     736.667    
 BOUNDARY    108   LAYER   1   ROW     8   COL     3   RATE     736.667    
 BOUNDARY    109   LAYER   1   ROW     8   COL     4   RATE     736.667    
 BOUNDARY    110   LAYER   1   ROW     8   COL     5   RATE     736.667    
 BOUNDARY    111   LAYER   1   ROW     8   COL     6   RATE     736.667    
 BOUNDARY    112   LAYER   1   ROW     8   COL     7   RATE     736.667    
 BOUNDARY    113   LAYER   1   ROW     8   COL     8   RATE     736.667    
 BOUNDARY    114   LAYER   1   ROW     8   COL     9   RATE     736.667    
 BOUNDARY    115   LAYER   1   ROW     8   COL    10   RATE     736.667    
 BOUNDARY    116   LAYER   1   ROW     8   COL    11   RATE     736.667    
 BOUNDARY    117   LAYER   1   ROW     8   COL    12   RATE     736.667    
 BOUNDARY    118   LAYER   1   ROW     8   COL    13   RATE     736.667    
 BOUNDARY    119   LAYER   1   ROW     8   COL    14   RATE     736.667    
 BOUNDARY    120   LAYER   1   ROW     8   COL    15   RATE     736.667    
 BOUNDARY    121   LAYER   1   ROW     9   COL     1   RATE     736.667    
 BOUNDARY    122   LAYER   1   ROW     9   COL     2   RATE     736.667    
 BOUNDARY    123   LAYER   1   ROW     9   COL     3   RATE     736.667    
 BOUNDARY    124   LAYER   1   ROW     9   COL     4   RATE     736.667    
 BOUNDARY    125   LAYER   1   ROW     9   COL     5   RATE     736.667    
 BOUNDARY    126   LAYER   1   ROW     9   COL     6   RATE     736.667    
 BOUNDARY    127   LAYER   1   ROW     9   COL     7   RATE     736.667    
 BOUNDARY    128   LAYER   1   ROW     9   COL     8   RATE     736.667    
 BOUNDARY    129   LAYER   1   ROW     9   COL     9   RATE     736.667    
 BOUNDARY    130   LAYER   1   ROW     9   COL    10   RATE     736.667    
 BOUNDARY    131   LAYER   1   ROW     9   COL    11   RATE     736.667    
 BOUNDARY    132   LAYER   1   ROW     9   COL    12   RATE     736.667    
 BOUNDARY    133   LAYER   1   ROW     9   COL    13   RATE     736.667    
 BOUNDARY    134   LAYER   1   ROW     9   COL    14   RATE     736.667    
 BOUNDARY    135   LAYER   1   ROW     9   COL    15   RATE     736.667    
 BOUNDARY    136   LAYER   1   ROW    10   COL     1   RATE     736.667    
 BOUNDARY    137   LAYER   1   ROW    10   COL     2   RATE     736.667    
 BOUNDARY    138   LAYER   1   ROW    10   COL     3   RATE     736.667    
 BOUNDARY    139   LAYER   1   ROW    10   COL     4   RATE     736.667    
 BOUNDARY    140   LAYER   1   ROW    10   COL     5   RATE     736.667    
 BOUNDARY    141   LAYER   1   ROW    10   COL     6   RATE     736.667    
 BOUNDARY    142   LAYER   1   ROW    10   COL     7   RATE     736.667    
 BOUNDARY    143   LAYER   1   ROW    10   COL     8   RATE     736.667    
 BOUNDARY    144   LAYER   1   ROW    10   COL     9   RATE     736.667    
 BOUNDARY    145   LAYER   1   ROW    10   COL    10   RATE     736.667    
 BOUNDARY    146   LAYER   1   ROW    10   COL    11   RATE     736.667    
 BOUNDARY    147   LAYER   1   ROW    10   COL    12   RATE     736.667    
 BOUNDARY    148   LAYER   1   ROW    10   COL    13   RATE     736.667    
 BOUNDARY    149   LAYER   1   ROW    10   COL    14   RATE     736.667    
 BOUNDARY    150   LAYER   1   ROW    10   COL    15   RATE     736.667    
 UBDSV4 SAVING ET SEGS          ON UNIT   1016 AT TIME STEP      3, STRESS PERIOD      5

 ET SEGS            PERIOD  5   STEP  3
 BOUNDARY      1   LAYER   1   ROW     1   COL     1   RATE    -2.87329    
 BOUNDARY      2   LAYER   1   ROW     1   COL     2   RATE    -9.84098    
 BOUNDARY      3   LAYER   1   ROW     1   COL     3   RATE    -62.4473    
 BOUNDARY      4   LAYER   1   ROW     1   COL     4   RATE    -101.458    
 BOUNDARY      5   LAYER   1   ROW     1   COL     5   RATE    -101.458    
 BOUNDARY      6   LAYER   1   ROW     1   COL     6   RATE    -101.458    
 BOUNDARY      7   LAYER   1   ROW     1   COL     7   RATE    -101.458    
 BOUNDARY      8   LAYER   1   ROW     1   COL     8   RATE    -101.458    
 BOUNDARY      9   LAYER   1   ROW     1   COL     9   RATE    -101.458    
 BOUNDARY     10   LAYER   1   ROW     1   COL    10   RATE    -101.458    
 BOUNDARY     11   LAYER   1   ROW     1   COL    11   RATE    -101.458    
 BOUNDARY     12   LAYER   1   ROW     1   COL    12   RATE    -19.5418    
 BOUNDARY     13   LAYER   1   ROW     1   COL    13   RATE     0.00000    
 BOUNDARY     14   LAYER   1   ROW     1   COL    14   RATE     0.00000    
 BOUNDARY     15   LAYER   1   ROW     1   COL    15   RATE     0.00000    
 BOUNDARY     16   LAYER   1   ROW     2   COL     1   RATE     0.00000    
 BOUNDARY     17   LAYER   1   ROW     2   COL     2   RATE    -5.24182    
 BOUNDARY     18   LAYER   1   ROW     2   COL     3   RATE    -33.8088    
 BOUNDARY     19   LAYER   1   ROW     2   COL     4   RATE    -101.458    
 BOUNDARY     20   LAYER   1   ROW     2   COL     5   RATE    -101.458    
 BOUNDARY     21   LAYER   1   ROW     2   COL     6   RATE    -101.458    
 BOUNDARY     22   LAYER   1   ROW     2   COL     7   RATE    -101.458    
 BOUNDARY     23   LAYER   1   ROW     2   COL     8   RATE    -101.458    
 BOUNDARY     24   LAYER   1   ROW     2   COL     9   RATE    -101.458    
 BOUNDARY     25   LAYER   1   ROW     2   COL    10   RATE    -101.458    
 BOUNDARY     26   LAYER   1   ROW     2   COL    11   RATE    -101.458    
 BOUNDARY     27   LAYER   1   ROW     2   COL    12   RATE    -21.3109    
 BOUNDARY     28   LAYER   1   ROW     2   COL    13   RATE   -0.839865    
 BOUNDARY     29   LAYER   1   ROW     2   COL    14   RATE     0.00000    
 BOUNDARY     30   LAYER   1   ROW     2   COL    15   RATE     0.00000    
 BOUNDARY     31   LAYER   1   ROW     3   COL     1   RATE     0.00000    
 BOUNDARY     32   LAYER   1   ROW     3   COL     2   RATE     0.00000    
 BOUNDARY     33   LAYER   1   ROW     3   COL     3   RATE    -25.0152    
 BOUNDARY     34   LAYER   1   ROW     3   COL     4   RATE    -101.458    
 BOUNDARY     35   LAYER   1   ROW     3   COL     5   RATE    -101.458    
 BOUNDARY     36   LAYER   1   ROW     3   COL     6   RATE    -101.458    
 BOUNDARY     37   LAYER   1   ROW     3   COL     7   RATE    -101.458    
 BOUNDARY     38   LAYER   1   ROW     3   COL     8   RATE    -101.458    
 BOUNDARY     39   LAYER   1   ROW     3   COL     9   RATE    -101.458    
 BOUNDARY     40   LAYER   1   ROW     3   COL    10   RATE    -101.458    
 BOUNDARY     41   LAYER   1   ROW     3   COL    11   RATE    -101.458    
 BOUNDARY     42   LAYER   1   ROW     3   COL    12   RATE    -24.2932    
 BOUNDARY     43   LAYER   1   ROW     3   COL    13   RATE    -2.66096    
 BOUNDARY     44   LAYER   1   ROW     3   COL    14   RATE     0.00000    
 BOUNDARY     45   LAYER   1   ROW     3   COL    15   RATE     0.00000    
 BOUNDARY     46   LAYER   1   ROW     4   COL     1   RATE     0.00000    
 BOUNDARY     47   LAYER   1   ROW     4   COL     2   RATE    -3.71142    
 BOUNDARY     48   LAYER   1   ROW     4   COL     3   RATE    -28.9711    
 BOUNDARY     49   LAYER   1   ROW     4   COL     4   RATE    -101.458    
 BOUNDARY     50   LAYER   1   ROW     4   COL     5   RATE    -101.458    
 BOUNDARY     51   LAYER   1   ROW     4   COL     6   RATE    -101.458    
 BOUNDARY     52   LAYER   1   ROW     4   COL     7   RATE    -101.458    
 BOUNDARY     53   LAYER   1   ROW     4   COL     8   RATE    -101.458    
 BOUNDARY     54   LAYER   1   ROW     4   COL     9   RATE    -101.458    
 BOUNDARY     55   LAYER   1   ROW     4   COL    10   RATE    -101.458    
 BOUNDARY     56   LAYER   1   ROW     4   COL    11   RATE    -101.458    
 BOUNDARY     57   LAYER   1   ROW     4   COL    12   RATE    -27.1240    
 BOUNDARY     58   LAYER   1   ROW     4   COL    13   RATE    -4.13425    
 BOUNDARY     59   LAYER   1   ROW     4   COL    14   RATE     0.00000    
 BOUNDARY     60   LAYER   1   ROW     4   COL    15   RATE     0.00000    
 BOUNDARY     61   LAYER   1   ROW     5   COL     1   RATE     0.00000    
 BOUNDARY     62   LAYER   1   ROW     5   COL     2   RATE    -6.73825    
 BOUNDARY     63   LAYER   1   ROW     5   COL     3   RATE    -43.8846    
 BOUNDARY     64   LAYER   1   ROW     5   COL     4   RATE    -101.458    
 BOUNDARY     65   LAYER   1   ROW     5   COL     5   RATE    -101.458    
 BOUNDARY     66   LAYER   1   ROW     5   COL     6   RATE    -101.458    
 BOUNDARY     67   LAYER   1   ROW     5   COL     7   RATE    -101.458    
 BOUNDARY     68   LAYER   1   ROW     5   COL     8   RATE    -101.458    
 BOUNDARY     69   LAYER   1   ROW     5   COL     9   RATE    -101.458    
 BOUNDARY     70   LAYER   1   ROW     5   COL    10   RATE    -101.458    
 BOUNDARY     71   LAYER   1   ROW     5   COL    11   RATE    -101.458    
 BOUNDARY     72   LAYER   1   ROW     5   COL    12   RATE    -29.0688    
 BOUNDARY     73   LAYER   1   ROW     5   COL    13   RATE    -5.03145    
 BOUNDARY     74   LAYER   1   ROW     5   COL    14   RATE     0.00000    
 BOUNDARY     75   LAYER   1   ROW     5   COL    15   RATE     0.00000    
 BOUNDARY     76   LAYER   1   ROW     6   COL     1   RATE     0.00000    
 BOUNDARY     77   LAYER   1   ROW     6   COL     2   RATE    -5.27519    
 BOUNDARY     78   LAYER   1   ROW     6   COL     3   RATE    -47.7783    
 BOUNDARY     79   LAYER   1   ROW     6   COL     4   RATE    -101.458    
 BOUNDARY     80   LAYER   1   ROW     6   COL     5   RATE    -101.458    
 BOUNDARY     81   LAYER   1   ROW     6   COL     6   RATE    -101.458    
 BOUNDARY     82   LAYER   1   ROW     6   COL     7   RATE    -101.458    
 BOUNDARY     83   LAYER   1   ROW     6   COL     8   RATE    -101.458    
 BOUNDARY     84   LAYER   1   ROW     6   COL     9   RATE    -101.458    
 BOUNDARY     85   LAYER   1   ROW     6   COL    10   RATE    -101.458    
 BOUNDARY     86   LAYER   1   ROW     6   COL    11   RATE    -101.458    
 BOUNDARY     87   LAYER   1   ROW     6   COL    12   RATE    -29.7223    
 BOUNDARY     88   LAYER   1   ROW     6   COL    13   RATE    -4.98222    
 BOUNDARY     89   LAYER   1   ROW     6   COL    14   RATE     0.00000    
 BOUNDARY     90   LAYER   1   ROW     6   COL    15   RATE     0.00000    
 BOUNDARY     91   LAYER   1   ROW     7   COL     1   RATE     0.00000    
 BOUNDARY     92   LAYER   1   ROW     7   COL     2   RATE    -1.69146    
 BOUNDARY     93   LAYER   1   ROW     7   COL     3   RATE    -54.8110    
 BOUNDARY     94   LAYER   1   ROW     7   COL     4   RATE    -101.458    
 BOUNDARY     95   LAYER   1   ROW     7   COL     5   RATE    -101.458    
 BOUNDARY     96   LAYER   1   ROW     7   COL     6   RATE    -101.458    
 BOUNDARY     97   LAYER   1   ROW     7   COL     7   RATE    -101.458    
 BOUNDARY     98   LAYER   1   ROW     7   COL     8   RATE    -101.458    
 BOUNDARY     99   LAYER   1   ROW     7   COL     9   RATE    -101.458    
 BOUNDARY    100   LAYER   1   ROW     7   COL    10   RATE    -101.458    
 BOUNDARY    101   LAYER   1   ROW     7   COL    11   RATE    -101.458    
 BOUNDARY    102   LAYER   1   ROW     7   COL    12   RATE    -29.5746    
 BOUNDARY    103   LAYER   1   ROW     7   COL    13   RATE    -4.25417    
 BOUNDARY    104   LAYER   1   ROW     7   COL    14   RATE     0.00000    
 BOUNDARY    105   LAYER   1   ROW     7   COL    15   RATE     0.00000    
 BOUNDARY    106   LAYER   1   ROW     8   COL     1   RATE     0.00000    
 BOUNDARY    107   LAYER   1   ROW     8   COL     2   RATE    -13.8100    
 BOUNDARY    108   LAYER   1   ROW     8   COL     3   RATE    -101.458    
 BOUNDARY    109   LAYER   1   ROW     8   COL     4   RATE    -101.458    
 BOUNDARY    110   LAYER   1   ROW     8   COL     5   RATE    -101.458    
 BOUNDARY    111   LAYER   1   ROW     8   COL     6   RATE    -101.458    
 BOUNDARY    112   LAYER   1   ROW     8   COL     7   RATE    -101.458    
 BOUNDARY    113   LAYER   1   ROW     8   COL     8   RATE    -101.458    
 BOUNDARY    114   LAYER   1   ROW     8   COL     9   RATE    -101.458    
 BOUNDARY    115   LAYER   1   ROW     8   COL    10   RATE    -101.458    
 BOUNDARY    116   LAYER   1   ROW     8   COL    11   RATE    -101.458    
 BOUNDARY    117   LAYER   1   ROW     8   COL    12   RATE    -29.9979    
 BOUNDARY    118   LAYER   1   ROW     8   COL    13   RATE    -4.28580    
 BOUNDARY    119   LAYER   1   ROW     8   COL    14   RATE     0.00000    
 BOUNDARY    120   LAYER   1   ROW     8   COL    15   RATE     0.00000    
 BOUNDARY    121   LAYER   1   ROW     9   COL     1   RATE    -21.5253    
 BOUNDARY    122   LAYER   1   ROW     9   COL     2   RATE    -74.3837    
 BOUNDARY    123   LAYER   1   ROW     9   COL     3   RATE    -101.458    
 BOUNDARY    124   LAYER   1   ROW     9   COL     4   RATE    -101.458    
 BOUNDARY    125   LAYER   1   ROW     9   COL     5   RATE    -101.458    
 BOUNDARY    126   LAYER   1   ROW     9   COL     6   RATE    -101.458    
 BOUNDARY    127   LAYER   1   ROW     9   COL     7   RATE    -101.458    
 BOUNDARY    128   LAYER   1   ROW     9   COL     8   RATE    -101.458    
 BOUNDARY    129   LAYER   1   ROW     9   COL     9   RATE    -101.458    
 BOUNDARY    130   LAYER   1   ROW     9   COL    10   RATE    -101.458    
 BOUNDARY    131   LAYER   1   ROW     9   COL    11   RATE    -101.458    
 BOUNDARY    132   LAYER   1   ROW     9   COL    12   RATE    -34.1512    
 BOUNDARY    133   LAYER   1   ROW     9   COL    13   RATE    -5.15692    
 BOUNDARY    134   LAYER   1   ROW     9   COL    14   RATE     0.00000    
 BOUNDARY    135   LAYER   1   ROW     9   COL    15   RATE     0.00000    
 BOUNDARY    136   LAYER   1   ROW    10   COL     1   RATE    -82.6909    
 BOUNDARY    137   LAYER   1   ROW    10   COL     2   RATE    -101.458    
 BOUNDARY    138   LAYER   1   ROW    10   COL     3   RATE    -101.458    
 BOUNDARY    139   LAYER   1   ROW    10   COL     4   RATE    -101.458    
 BOUNDARY    140   LAYER   1   ROW    10   COL     5   RATE    -101.458    
 BOUNDARY    141   LAYER   1   ROW    10   COL     6   RATE    -101.458    
 BOUNDARY    142   LAYER   1   ROW    10   COL     7   RATE    -101.458    
 BOUNDARY    143   LAYER   1   ROW    10   COL     8   RATE    -101.458    
 BOUNDARY    144   LAYER   1   ROW    10   COL     9   RATE    -101.458    
 BOUNDARY    145   LAYER   1   ROW    10   COL    10   RATE    -101.458    
 BOUNDARY    146   LAYER   1   ROW    10   COL    11   RATE    -101.458    
 BOUNDARY    147   LAYER   1   ROW    10   COL    12   RATE    -38.4405    
 BOUNDARY    148   LAYER   1   ROW    10   COL    13   RATE    -5.71187    
 BOUNDARY    149   LAYER   1   ROW    10   COL    14   RATE     0.00000    
 BOUNDARY    150   LAYER   1   ROW    10   COL    15   RATE     0.00000    

 HEAD WILL BE SAVED ON UNIT 1017 AT END OF TIME STEP    3, STRESS PERIOD    5
WEL   no.    1 value from time series:   0.0000     for time:  94.00     to  95.00    
WEL   no.    2 value from time series:   0.0000     for time:  94.00     to  95.00    
RIV   no.    1 value from time series:   101.00     for time:  94.00     to  95.00    
RIV   no.    2 value from time series:   101.00     for time:  94.00     to  95.00    
RIV   no.    3 value from time series:   111.50     for time:  94.00     to  95.00    
RIV   no.    4 value from time series:   111.50     for time:  94.00     to  95.00    
RIV   no.    5 value from time series:   115.10     for time:  94.00     to  95.00    
RIV   no.    6 value from time series:   115.10     for time:  94.00     to  95.00    
RIV   no.    7 value from time series:   104.00     for time:  94.00     to  95.00    
RIV   no.    8 value from time series:   104.00     for time:  94.00     to  95.00    
RIV   no.    9 value from time series:   113.50     for time:  94.00     to  95.00    
RIV   no.   10 value from time series:   113.50     for time:  94.00     to  95.00    
WEL   no.    1 value from time series:   0.0000     for time:  94.00     to  95.00    
WEL   no.    2 value from time series:   0.0000     for time:  94.00     to  95.00    
RIV   no.    1 value from time series:   101.00     for time:  94.00     to  95.00    
RIV   no.    2 value from time series:   101.00     for time:  94.00     to  95.00    
RIV   no.    3 value from time series:   111.50     for time:  94.00     to  95.00    
RIV   no.    4 value from time series:   111.50     for time:  94.00     to  95.00    
RIV   no.    5 value from time series:   115.10     for time:  94.00     to  95.00    
RIV   no.    6 value from time series:   115.10     for time:  94.00     to  95.00    
RIV   no.    7 value from time series:   104.00     for time:  94.00     to  95.00    
RIV   no.    8 value from time series:   104.00     for time:  94.00     to  95.00    
RIV   no.    9 value from time series:   113.50     for time:  94.00     to  95.00    
RIV   no.   10 value from time series:   113.50     for time:  94.00     to  95.00    

 OUTPUT CONTROL FOR STRESS PERIOD    5   TIME STEP    4
    SAVE BUDGET
    SAVE HEAD
    SAVE HEAD FOR ALL LAYERS
 UBDSV1 SAVING          STORAGE ON UNIT   1016 AT TIME STEP      4, STRESS PERIOD      5
 UBDSV1 SAVING FLOW RIGHT FACE  ON UNIT   1016 AT TIME STEP      4, STRESS PERIOD      5
 UBDSV1 SAVING FLOW FRONT FACE  ON UNIT   1016 AT TIME STEP      4, STRESS PERIOD      5
 UBDSV1 SAVING FLOW LOWER FACE  ON UNIT   1016 AT TIME STEP      4, STRESS PERIOD      5
 UBDSV4 SAVING WELLS NEAR RIVER ON UNIT   1016 AT TIME STEP      4, STRESS PERIOD      5

 WELLS NEAR RIVER   PERIOD  5   STEP  4
 BOUNDARY      1   LAYER   2   ROW     8   COL     4   RATE     0.00000      WELL_2
 BOUNDARY      2   LAYER   2   ROW     3   COL     4   RATE     0.00000      WELL_1
 UBDSV4 SAVING RIVER            ON UNIT   1016 AT TIME STEP      4, STRESS PERIOD      5

 RIVER              PERIOD  5   STEP  4
 BOUNDARY      1   LAYER   1   ROW     1   COL    15   RATE    -4882.18    
 BOUNDARY      2   LAYER   1   ROW     2   COL    15   RATE    -6006.32      RIV2
 BOUNDARY      3   LAYER   1   ROW     3   COL    15   RATE    -2272.30      RIV3
 BOUNDARY      4   LAYER   1   ROW     4   COL    15   RATE    -3735.61    
 BOUNDARY      5   LAYER   1   ROW     5   COL    15   RATE    -2373.85    
 BOUNDARY      6   LAYER   1   ROW     6   COL    15   RATE    -1721.75    
 BOUNDARY      7   LAYER   1   ROW     7   COL    15   RATE    -6203.69      RIVX
 BOUNDARY      8   LAYER   1   ROW     8   COL    15   RATE    -6051.48      RIVX
 BOUNDARY      9   LAYER   1   ROW     9   COL    15   RATE    -2260.93      RIVX
 BOUNDARY     10   LAYER   1   ROW    10   COL    15   RATE    -3165.47    

 GHB LAKES          PERIOD  5   STEP  4
 BOUNDARY      1   LAYER   1   ROW     3   COL     1   RATE    -14725.9    
 BOUNDARY      2   LAYER   1   ROW     7   COL     1   RATE    -2045.91      GHB2_UPPER
 BOUNDARY      3   LAYER   1   ROW     7   COL     1   RATE    -13308.5      GHB2_LOWER
 UBDSV4 SAVING RECHARGE         ON UNIT   1016 AT TIME STEP      4, STRESS PERIOD      5

 RECHARGE           PERIOD  5   STEP  4
 BOUNDARY      1   LAYER   1   ROW     1   COL     1   RATE     740.000    
 BOUNDARY      2   LAYER   1   ROW     1   COL     2   RATE     740.000    
 BOUNDARY      3   LAYER   1   ROW     1   COL     3   RATE     740.000    
 BOUNDARY      4   LAYER   1   ROW     1   COL     4   RATE     740.000    
 BOUNDARY      5   LAYER   1   ROW     1   COL     5   RATE     740.000    
 BOUNDARY      6   LAYER   1   ROW     1   COL     6   RATE     740.000    
 BOUNDARY      7   LAYER   1   ROW     1   COL     7   RATE     740.000    
 BOUNDARY      8   LAYER   1   ROW     1   COL     8   RATE     740.000    
 BOUNDARY      9   LAYER   1   ROW     1   COL     9   RATE     740.000    
 BOUNDARY     10   LAYER   1   ROW     1   COL    10   RATE     740.000    
 BOUNDARY     11   LAYER   1   ROW     1   COL    11   RATE     740.000    
 BOUNDARY     12   LAYER   1   ROW     1   COL    12   RATE     740.000    
 BOUNDARY     13   LAYER   1   ROW     1   COL    13   RATE     740.000    
 BOUNDARY     14   LAYER   1   ROW     1   COL    14   RATE     740.000    
 BOUNDARY     15   LAYER   1   ROW     1   COL    15   RATE     740.000    
 BOUNDARY     16   LAYER   1   ROW     2   COL     1   RATE     740.000    
 BOUNDARY     17   LAYER   1   ROW     2   COL     2   RATE     740.000    
 BOUNDARY     18   LAYER   1   ROW     2   COL     3   RATE     740.000    
 BOUNDARY     19   LAYER   1   ROW     2   COL     4   RATE     740.000    
 BOUNDARY     20   LAYER   1   ROW     2   COL     5   RATE     740.000    
 BOUNDARY     21   LAYER   1   ROW     2   COL     6   RATE     740.000    
 BOUNDARY     22   LAYER   1   ROW     2   COL     7   RATE     740.000    
 BOUNDARY     23   LAYER   1   ROW     2   COL     8   RATE     740.000    
 BOUNDARY     24   LAYER   1   ROW     2   COL     9   RATE     740.000    
 BOUNDARY     25   LAYER   1   ROW     2   COL    10   RATE     740.000    
 BOUNDARY     26   LAYER   1   ROW     2   COL    11   RATE     740.000    
 BOUNDARY     27   LAYER   1   ROW     2   COL    12   RATE     740.000    
 BOUNDARY     28   LAYER   1   ROW     2   COL    13   RATE     740.000    
 BOUNDARY     29   LAYER   1   ROW     2   COL    14   RATE     740.000    
 BOUNDARY     30   LAYER   1   ROW     2   COL    15   RATE     740.000    
 BOUNDARY     31   LAYER   1   ROW     3   COL     1   RATE     740.000    
 BOUNDARY     32   LAYER   1   ROW     3   COL     2   RATE     740.000    
 BOUNDARY     33   LAYER   1   ROW     3   COL     3   RATE     740.000    
 BOUNDARY     34   LAYER   1   ROW     3   COL     4   RATE     740.000    
 BOUNDARY     35   LAYER   1   ROW     3   COL     5   RATE     740.000    
 BOUNDARY     36   LAYER   1   ROW     3   COL     6   RATE     740.000    
 BOUNDARY     37   LAYER   1   ROW     3   COL     7   RATE     740.000    
 BOUNDARY     38   LAYER   1   ROW     3   COL     8   RATE     740.000    
 BOUNDARY     39   LAYER   1   ROW     3   COL     9   RATE     740.000    
 BOUNDARY     40   LAYER   1   ROW     3   COL    10   RATE     740.000    
 BOUNDARY     41   LAYER   1   ROW     3   COL    11   RATE     740.000    
 BOUNDARY     42   LAYER   1   ROW     3   COL    12   RATE     740.000    
 BOUNDARY     43   LAYER   1   ROW     3   COL    13   RATE     740.000    
 BOUNDARY     44   LAYER   1   ROW     3   COL    14   RATE     740.000    
 BOUNDARY     45   LAYER   1   ROW     3   COL    15   RATE     740.000    
 BOUNDARY     46   LAYER   1   ROW     4   COL     1   RATE     740.000    
 BOUNDARY     47   LAYER   1   ROW     4   COL     2   RATE     740.000    
 BOUNDARY     48   LAYER   1   ROW     4   COL     3   RATE     740.000    
 BOUNDARY     49   LAYER   1   ROW     4   COL     4   RATE     740.000    
 BOUNDARY     50   LAYER   1   ROW     4   COL     5   RATE     740.000    
 BOUNDARY     51   LAYER   1   ROW     4   COL     6   RATE     740.000    
 BOUNDARY     52   LAYER   1   ROW     4   COL     7   RATE     740.000    
 BOUNDARY     53   LAYER   1   ROW     4   COL     8   RATE     740.000    
 BOUNDARY     54   LAYER   1   ROW     4   COL     9   RATE     740.000    
 BOUNDARY     55   LAYER   1   ROW     4   COL    10   RATE     740.000    
 BOUNDARY     56   LAYER   1   ROW     4   COL    11   RATE     740.000    
 BOUNDARY     57   LAYER   1   ROW     4   COL    12   RATE     740.000    
 BOUNDARY     58   LAYER   1   ROW     4   COL    13   RATE     740.000    
 BOUNDARY     59   LAYER   1   ROW     4   COL    14   RATE     740.000    
 BOUNDARY     60   LAYER   1   ROW     4   COL    15   RATE     740.000    
 BOUNDARY     61   LAYER   1   ROW     5   COL     1   RATE     740.000    
 BOUNDARY     62   LAYER   1   ROW     5   COL     2   RATE     740.000    
 BOUNDARY     63   LAYER   1   ROW     5   COL     3   RATE     740.000    
 BOUNDARY     64   LAYER   1   ROW     5   COL     4   RATE     740.000    
 BOUNDARY     65   LAYER   1   ROW     5   COL     5   RATE     740.000    
 BOUNDARY     66   LAYER   1   ROW     5   COL     6   RATE     740.000    
 BOUNDARY     67   LAYER   1   ROW     5   COL     7   RATE     740.000    
 BOUNDARY     68   LAYER   1   ROW     5   COL     8   RATE     740.000    
 BOUNDARY     69   LAYER   1   ROW     5   COL     9   RATE     740.000    
 BOUNDARY     70   LAYER   1   ROW     5   COL    10   RATE     740.000    
 BOUNDARY     71   LAYER   1   ROW     5   COL    11   RATE     740.000    
 BOUNDARY     72   LAYER   1   ROW     5   COL    12   RATE     740.000    
 BOUNDARY     73   LAYER   1   ROW     5   COL    13   RATE     740.000    
 BOUNDARY     74   LAYER   1   ROW     5   COL    14   RATE     740.000    
 BOUNDARY     75   LAYER   1   ROW     5   COL    15   RATE     740.000    
 BOUNDARY     76   LAYER   1   ROW     6   COL     1   RATE     740.000    
 BOUNDARY     77   LAYER   1   ROW     6   COL     2   RATE     740.000    
 BOUNDARY     78   LAYER   1   ROW     6   COL     3   RATE     740.000    
 BOUNDARY     79   LAYER   1   ROW     6   COL     4   RATE     740.000    
 BOUNDARY     80   LAYER   1   ROW     6   COL     5   RATE     740.000    
 BOUNDARY     81   LAYER   1   ROW     6   COL     6   RATE     740.000    
 BOUNDARY     82   LAYER   1   ROW     6   COL     7   RATE     740.000    
 BOUNDARY     83   LAYER   1   ROW     6   COL     8   RATE     740.000    
 BOUNDARY     84   LAYER   1   ROW     6   COL     9   RATE     740.000    
 BOUNDARY     85   LAYER   1   ROW     6   COL    10   RATE     740.000    
 BOUNDARY     86   LAYER   1   ROW     6   COL    11   RATE     740.000    
 BOUNDARY     87   LAYER   1   ROW     6   COL    12   RATE     740.000    
 BOUNDARY     88   LAYER   1   ROW     6   COL    13   RATE     740.000    
 BOUNDARY     89   LAYER   1   ROW     6   COL    14   RATE     740.000    
 BOUNDARY     90   LAYER   1   ROW     6   COL    15   RATE     740.000    
 BOUNDARY     91   LAYER   1   ROW     7   COL     1   RATE     740.000    
 BOUNDARY     92   LAYER   1   ROW     7   COL     2   RATE     740.000    
 BOUNDARY     93   LAYER   1   ROW     7   COL     3   RATE     740.000    
 BOUNDARY     94   LAYER   1   ROW     7   COL     4   RATE     740.000    
 BOUNDARY     95   LAYER   1   ROW     7   COL     5   RATE     740.000    
 BOUNDARY     96   LAYER   1   ROW     7   COL     6   RATE     740.000    
 BOUNDARY     97   LAYER   1   ROW     7   COL     7   RATE     740.000    
 BOUNDARY     98   LAYER   1   ROW     7   COL     8   RATE     740.000    
 BOUNDARY     99   LAYER   1   ROW     7   COL     9   RATE     740.000    
 BOUNDARY    100   LAYER   1   ROW     7   COL    10   RATE     740.000    
 BOUNDARY    101   LAYER   1   ROW     7   COL    11   RATE     740.000    
 BOUNDARY    102   LAYER   1   ROW     7   COL    12   RATE     740.000    
 BOUNDARY    103   LAYER   1   ROW     7   COL    13   RATE     740.000    
 BOUNDARY    104   LAYER   1   ROW     7   COL    14   RATE     740.000    
 BOUNDARY    105   LAYER   1   ROW     7   COL    15   RATE     740.000    
 BOUNDARY    106   LAYER   1   ROW     8   COL     1   RATE     740.000    
 BOUNDARY    107   LAYER   1   ROW     8   COL     2   RATE     740.000    
 BOUNDARY    108   LAYER   1   ROW     8   COL     3   RATE     740.000    
 BOUNDARY    109   LAYER   1   ROW     8   COL     4   RATE     740.000    
 BOUNDARY    110   LAYER   1   ROW     8   COL     5   RATE     740.000    
 BOUNDARY    111   LAYER   1   ROW     8   COL     6   RATE     740.000    
 BOUNDARY    112   LAYER   1   ROW     8   COL     7   RATE     740.000    
 BOUNDARY    113   LAYER   1   ROW     8   COL     8   RATE     740.000    
 BOUNDARY    114   LAYER   1   ROW     8   COL     9   RATE     740.000    
 BOUNDARY    115   LAYER   1   ROW     8   COL    10   RATE     740.000    
 BOUNDARY    116   LAYER   1   ROW     8   COL    11   RATE     740.000    
 BOUNDARY    117   LAYER   1   ROW     8   COL    12   RATE     740.000    
 BOUNDARY    118   LAYER   1   ROW     8   COL    13   RATE     740.000    
 BOUNDARY    119   LAYER   1   ROW     8   COL    14   RATE     740.000    
 BOUNDARY    120   LAYER   1   ROW     8   COL    15   RATE     740.000    
 BOUNDARY    121   LAYER   1   ROW     9   COL     1   RATE     740.000    
 BOUNDARY    122   LAYER   1   ROW     9   COL     2   RATE     740.000    
 BOUNDARY    123   LAYER   1   ROW     9   COL     3   RATE     740.000    
 BOUNDARY    124   LAYER   1   ROW     9   COL     4   RATE     740.000    
 BOUNDARY    125   LAYER   1   ROW     9   COL     5   RATE     740.000    
 BOUNDARY    126   LAYER   1   ROW     9   COL     6   RATE     740.000    
 BOUNDARY    127   LAYER   1   ROW     9   COL     7   RATE     740.000    
 BOUNDARY    128   LAYER   1   ROW     9   COL     8   RATE     740.000    
 BOUNDARY    129   LAYER   1   ROW     9   COL     9   RATE     740.000    
 BOUNDARY    130   LAYER   1   ROW     9   COL    10   RATE     740.000    
 BOUNDARY    131   LAYER   1   ROW     9   COL    11   RATE     740.000    
 BOUNDARY    132   LAYER   1   ROW     9   COL    12   RATE     740.000    
 BOUNDARY    133   LAYER   1   ROW     9   COL    13   RATE     740.000    
 BOUNDARY    134   LAYER   1   ROW     9   COL    14   RATE     740.000    
 BOUNDARY    135   LAYER   1   ROW     9   COL    15   RATE     740.000    
 BOUNDARY    136   LAYER   1   ROW    10   COL     1   RATE     740.000    
 BOUNDARY    137   LAYER   1   ROW    10   COL     2   RATE     740.000    
 BOUNDARY    138   LAYER   1   ROW    10   COL     3   RATE     740.000    
 BOUNDARY    139   LAYER   1   ROW    10   COL     4   RATE     740.000    
 BOUNDARY    140   LAYER   1   ROW    10   COL     5   RATE     740.000    
 BOUNDARY    141   LAYER   1   ROW    10   COL     6   RATE     740.000    
 BOUNDARY    142   LAYER   1   ROW    10   COL     7   RATE     740.000    
 BOUNDARY    143   LAYER   1   ROW    10   COL     8   RATE     740.000    
 BOUNDARY    144   LAYER   1   ROW    10   COL     9   RATE     740.000    
 BOUNDARY    145   LAYER   1   ROW    10   COL    10   RATE     740.000    
 BOUNDARY    146   LAYER   1   ROW    10   COL    11   RATE     740.000    
 BOUNDARY    147   LAYER   1   ROW    10   COL    12   RATE     740.000    
 BOUNDARY    148   LAYER   1   ROW    10   COL    13   RATE     740.000    
 BOUNDARY    149   LAYER   1   ROW    10   COL    14   RATE     740.000    
 BOUNDARY    150   LAYER   1   ROW    10   COL    15   RATE     740.000    
 UBDSV4 SAVING ET SEGS          ON UNIT   1016 AT TIME STEP      4, STRESS PERIOD      5

 ET SEGS            PERIOD  5   STEP  4
 BOUNDARY      1   LAYER   1   ROW     1   COL     1   RATE    -2.90369    
 BOUNDARY      2   LAYER   1   ROW     1   COL     2   RATE    -9.90022    
 BOUNDARY      3   LAYER   1   ROW     1   COL     3   RATE    -63.0281    
 BOUNDARY      4   LAYER   1   ROW     1   COL     4   RATE    -101.875    
 BOUNDARY      5   LAYER   1   ROW     1   COL     5   RATE    -101.875    
 BOUNDARY      6   LAYER   1   ROW     1   COL     6   RATE    -101.875    
 BOUNDARY      7   LAYER   1   ROW     1   COL     7   RATE    -101.875    
 BOUNDARY      8   LAYER   1   ROW     1   COL     8   RATE    -101.875    
 BOUNDARY      9   LAYER   1   ROW     1   COL     9   RATE    -101.875    
 BOUNDARY     10   LAYER   1   ROW     1   COL    10   RATE    -101.875    
 BOUNDARY     11   LAYER   1   ROW     1   COL    11   RATE    -101.875    
 BOUNDARY     12   LAYER   1   ROW     1   COL    12   RATE    -19.6863    
 BOUNDARY     13   LAYER   1   ROW     1   COL    13   RATE     0.00000    
 BOUNDARY     14   LAYER   1   ROW     1   COL    14   RATE     0.00000    
 BOUNDARY     15   LAYER   1   ROW     1   COL    15   RATE     0.00000    
 BOUNDARY     16   LAYER   1   ROW     2   COL     1   RATE     0.00000    
 BOUNDARY     17   LAYER   1   ROW     2   COL     2   RATE    -5.28196    
 BOUNDARY     18   LAYER   1   ROW     2   COL     3   RATE    -34.2815    
 BOUNDARY     19   LAYER   1   ROW     2   COL     4   RATE    -101.875    
 BOUNDARY     20   LAYER   1   ROW     2   COL     5   RATE    -101.875    
 BOUNDARY     21   LAYER   1   ROW     2   COL     6   RATE    -101.875    
 BOUNDARY     22   LAYER   1   ROW     2   COL     7   RATE    -101.875    
 BOUNDARY     23   LAYER   1   ROW     2   COL     8   RATE    -101.875    
 BOUNDARY     24   LAYER   1   ROW     2   COL     9   RATE    -101.875    
 BOUNDARY     25   LAYER   1   ROW     2   COL    10   RATE    -101.875    
 BOUNDARY     26   LAYER   1   ROW     2   COL    11   RATE    -101.875    
 BOUNDARY     27   LAYER   1   ROW     2   COL    12   RATE    -21.4627    
 BOUNDARY     28   LAYER   1   ROW     2   COL    13   RATE   -0.862172    
 BOUNDARY     29   LAYER   1   ROW     2   COL    14   RATE     0.00000    
 BOUNDARY     30   LAYER   1   ROW     2   COL    15   RATE     0.00000    
 BOUNDARY     31   LAYER   1   ROW     3   COL     1   RATE     0.00000    
 BOUNDARY     32   LAYER   1   ROW     3   COL     2   RATE     0.00000    
 BOUNDARY     33   LAYER   1   ROW     3   COL     3   RATE    -25.1807    
 BOUNDARY     34   LAYER   1   ROW     3   COL     4   RATE    -101.875    
 BOUNDARY     35   LAYER   1   ROW     3   COL     5   RATE    -101.875    
 BOUNDARY     36   LAYER   1   ROW     3   COL     6   RATE    -101.875    
 BOUNDARY     37   LAYER   1   ROW     3   COL     7   RATE    -101.875    
 BOUNDARY     38   LAYER   1   ROW     3   COL     8   RATE    -101.875    
 BOUNDARY     39   LAYER   1   ROW     3   COL     9   RATE    -101.875    
 BOUNDARY     40   LAYER   1   ROW     3   COL    10   RATE    -101.875    
 BOUNDARY     41   LAYER   1   ROW     3   COL    11   RATE    -101.875    
 BOUNDARY     42   LAYER   1   ROW     3   COL    12   RATE    -24.4571    
 BOUNDARY     43   LAYER   1   ROW     3   COL    13   RATE    -2.69079    
 BOUNDARY     44   LAYER   1   ROW     3   COL    14   RATE     0.00000    
 BOUNDARY     45   LAYER   1   ROW     3   COL    15   RATE     0.00000    
 BOUNDARY     46   LAYER   1   ROW     4   COL     1   RATE     0.00000    
 BOUNDARY     47   LAYER   1   ROW     4   COL     2   RATE    -3.74512    
 BOUNDARY     48   LAYER   1   ROW     4   COL     3   RATE    -29.1527    
 BOUNDARY     49   LAYER   1   ROW     4   COL     4   RATE    -101.875    
 BOUNDARY     50   LAYER   1   ROW     4   COL     5   RATE    -101.875    
 BOUNDARY     51   LAYER   1   ROW     4   COL     6   RATE    -101.875    
 BOUNDARY     52   LAYER   1   ROW     4   COL     7   RATE    -101.875    
 BOUNDARY     53   LAYER   1   ROW     4   COL     8   RATE    -101.875    
 BOUNDARY     54   LAYER   1   ROW     4   COL     9   RATE    -101.875    
 BOUNDARY     55   LAYER   1   ROW     4   COL    10   RATE    -101.875    
 BOUNDARY     56   LAYER   1   ROW     4   COL    11   RATE    -101.875    
 BOUNDARY     57   LAYER   1   ROW     4   COL    12   RATE    -27.2993    
 BOUNDARY     58   LAYER   1   ROW     4   COL    13   RATE    -4.16999    
 BOUNDARY     59   LAYER   1   ROW     4   COL    14   RATE     0.00000    
 BOUNDARY     60   LAYER   1   ROW     4   COL    15   RATE     0.00000    
 BOUNDARY     61   LAYER   1   ROW     5   COL     1   RATE     0.00000    
 BOUNDARY     62   LAYER   1   ROW     5   COL     2   RATE    -6.78461    
 BOUNDARY     63   LAYER   1   ROW     5   COL     3   RATE    -44.3883    
 BOUNDARY     64   LAYER   1   ROW     5   COL     4   RATE    -101.875    
 BOUNDARY     65   LAYER   1   ROW     5   COL     5   RATE    -101.875    
 BOUNDARY     66   LAYER   1   ROW     5   COL     6   RATE    -101.875    
 BOUNDARY     67   LAYER   1   ROW     5   COL     7   RATE    -101.875    
 BOUNDARY     68   LAYER   1   ROW     5   COL     8   RATE    -101.875    
 BOUNDARY     69   LAYER   1   ROW     5   COL     9   RATE    -101.875    
 BOUNDARY     70   LAYER   1   ROW     5   COL    10   RATE    -101.875    
 BOUNDARY     71   LAYER   1   ROW     5   COL    11   RATE    -101.875    
 BOUNDARY     72   LAYER   1   ROW     5   COL    12   RATE    -29.2517    
 BOUNDARY     73   LAYER   1   ROW     5   COL    13   RATE    -5.07061    
 BOUNDARY     74   LAYER   1   ROW     5   COL    14   RATE     0.00000    
 BOUNDARY     75   LAYER   1   ROW     5   COL    15   RATE     0.00000    
 BOUNDARY     76   LAYER   1   ROW     6   COL     1   RATE     0.00000    
 BOUNDARY     77   LAYER   1   ROW     6   COL     2   RATE    -5.31513    
 BOUNDARY     78   LAYER   1   ROW     6   COL     3   RATE    -48.2952    
 BOUNDARY     79   LAYER   1   ROW     6   COL     4   RATE    -101.875    
 BOUNDARY     80   LAYER   1   ROW     6   COL     5   RATE    -101.875    
 BOUNDARY     81   LAYER   1   ROW     6   COL     6   RATE    -101.875    
 BOUNDARY     82   LAYER   1   ROW     6   COL     7   RATE    -101.875    
 BOUNDARY     83   LAYER   1   ROW     6   COL     8   RATE    -101.875    
 BOUNDARY     84   LAYER   1   ROW     6   COL     9   RATE    -101.875    
 BOUNDARY     85   LAYER   1   ROW     6   COL    10   RATE    -101.875    
 BOUNDARY     86   LAYER   1   ROW     6   COL    11   RATE    -101.875    
 BOUNDARY     87   LAYER   1   ROW     6   COL    12   RATE    -29.9077    
 BOUNDARY     88   LAYER   1   ROW     6   COL    13   RATE    -5.02108    
 BOUNDARY     89   LAYER   1   ROW     6   COL    14   RATE     0.00000    
 BOUNDARY     90   LAYER   1   ROW     6   COL    15   RATE     0.00000    
 BOUNDARY     91   LAYER   1   ROW     7   COL     1   RATE     0.00000    
 BOUNDARY     92   LAYER   1   ROW     7   COL     2   RATE    -1.71557    
 BOUNDARY     93   LAYER   1   ROW     7   COL     3   RATE    -55.3538    
 BOUNDARY     94   LAYER   1   ROW     7   COL     4   RATE    -101.875    
 BOUNDARY     95   LAYER   1   ROW     7   COL     5   RATE    -101.875    
 BOUNDARY     96   LAYER   1   ROW     7   COL     6   RATE    -101.875    
 BOUNDARY     97   LAYER   1   ROW     7   COL     7   RATE    -101.875    
 BOUNDARY     98   LAYER   1   ROW     7   COL     8   RATE    -101.875    
 BOUNDARY     99   LAYER   1   ROW     7   COL     9   RATE    -101.875    
 BOUNDARY    100   LAYER   1   ROW     7   COL    10   RATE    -101.875    
 BOUNDARY    101   LAYER   1   ROW     7   COL    11   RATE    -101.875    
 BOUNDARY    102   LAYER   1   ROW     7   COL    12   RATE    -29.7596    
 BOUNDARY    103   LAYER   1   ROW     7   COL    13   RATE    -4.29024    
 BOUNDARY    104   LAYER   1   ROW     7   COL    14   RATE     0.00000    
 BOUNDARY    105   LAYER   1   ROW     7   COL    15   RATE     0.00000    
 BOUNDARY    106   LAYER   1   ROW     8   COL     1   RATE     0.00000    
 BOUNDARY    107   LAYER   1   ROW     8   COL     2   RATE    -13.9276    
 BOUNDARY    108   LAYER   1   ROW     8   COL     3   RATE    -101.875    
 BOUNDARY    109   LAYER   1   ROW     8   COL     4   RATE    -101.875    
 BOUNDARY    110   LAYER   1   ROW     8   COL     5   RATE    -101.875    
 BOUNDARY    111   LAYER   1   ROW     8   COL     6   RATE    -101.875    
 BOUNDARY    112   LAYER   1   ROW     8   COL     7   RATE    -101.875    
 BOUNDARY    113   LAYER   1   ROW     8   COL     8   RATE    -101.875    
 BOUNDARY    114   LAYER   1   ROW     8   COL     9   RATE    -101.875    
 BOUNDARY    115   LAYER   1   ROW     8   COL    10   RATE    -101.875    
 BOUNDARY    116   LAYER   1   ROW     8   COL    11   RATE    -101.875    
 BOUNDARY    117   LAYER   1   ROW     8   COL    12   RATE    -30.1853    
 BOUNDARY    118   LAYER   1   ROW     8   COL    13   RATE    -4.32242    
 BOUNDARY    119   LAYER   1   ROW     8   COL    14   RATE     0.00000    
 BOUNDARY    120   LAYER   1   ROW     8   COL    15   RATE     0.00000    
 BOUNDARY    121   LAYER   1   ROW     9   COL     1   RATE    -21.6750    
 BOUNDARY    122   LAYER   1   ROW     9   COL     2   RATE    -75.0090    
 BOUNDARY    123   LAYER   1   ROW     9   COL     3   RATE    -101.875    
 BOUNDARY    124   LAYER   1   ROW     9   COL     4   RATE    -101.875    
 BOUNDARY    125   LAYER   1   ROW     9   COL     5   RATE    -101.875    
 BOUNDARY    126   LAYER   1   ROW     9   COL     6   RATE    -101.875    
 BOUNDARY    127   LAYER   1   ROW     9   COL     7   RATE    -101.875    
 BOUNDARY    128   LAYER   1   ROW     9   COL     8   RATE    -101.875    
 BOUNDARY    129   LAYER   1   ROW     9   COL     9   RATE    -101.875    
 BOUNDARY    130   LAYER   1   ROW     9   COL    10   RATE    -101.875    
 BOUNDARY    131   LAYER   1   ROW     9   COL    11   RATE    -101.875    
 BOUNDARY    132   LAYER   1   ROW     9   COL    12   RATE    -34.6282    
 BOUNDARY    133   LAYER   1   ROW     9   COL    13   RATE    -5.19759    
 BOUNDARY    134   LAYER   1   ROW     9   COL    14   RATE     0.00000    
 BOUNDARY    135   LAYER   1   ROW     9   COL    15   RATE     0.00000    
 BOUNDARY    136   LAYER   1   ROW    10   COL     1   RATE    -83.3477    
 BOUNDARY    137   LAYER   1   ROW    10   COL     2   RATE    -101.875    
 BOUNDARY    138   LAYER   1   ROW    10   COL     3   RATE    -101.875    
 BOUNDARY    139   LAYER   1   ROW    10   COL     4   RATE    -101.875    
 BOUNDARY    140   LAYER   1   ROW    10   COL     5   RATE    -101.875    
 BOUNDARY    141   LAYER   1   ROW    10   COL     6   RATE    -101.875    
 BOUNDARY    142   LAYER   1   ROW    10   COL     7   RATE    -101.875    
 BOUNDARY    143   LAYER   1   ROW    10   COL     8   RATE    -101.875    
 BOUNDARY    144   LAYER   1   ROW    10   COL     9   RATE    -101.875    
 BOUNDARY    145   LAYER   1   ROW    10   COL    10   RATE    -101.875    
 BOUNDARY    146   LAYER   1   ROW    10   COL    11   RATE    -101.875    
 BOUNDARY    147   LAYER   1   ROW    10   COL    12   RATE    -38.9354    
 BOUNDARY    148   LAYER   1   ROW    10   COL    13   RATE    -5.75509    
 BOUNDARY    149   LAYER   1   ROW    10   COL    14   RATE     0.00000    
 BOUNDARY    150   LAYER   1   ROW    10   COL    15   RATE     0.00000    

 HEAD WILL BE SAVED ON UNIT 1017 AT END OF TIME STEP    4, STRESS PERIOD    5
WEL   no.    1 value from time series:   0.0000     for time:  95.00     to  96.00    
WEL   no.    2 value from time series:   0.0000     for time:  95.00     to  96.00    
RIV   no.    1 value from time series:   101.00     for time:  95.00     to  96.00    
RIV   no.    2 value from time series:   101.00     for time:  95.00     to  96.00    
RIV   no.    3 value from time series:   111.50     for time:  95.00     to  96.00    
RIV   no.    4 value from time series:   111.50     for time:  95.00     to  96.00    
RIV   no.    5 value from time series:   115.10     for time:  95.00     to  96.00    
RIV   no.    6 value from time series:   115.10     for time:  95.00     to  96.00    
RIV   no.    7 value from time series:   104.00     for time:  95.00     to  96.00    
RIV   no.    8 value from time series:   104.00     for time:  95.00     to  96.00    
RIV   no.    9 value from time series:   113.50     for time:  95.00     to  96.00    
RIV   no.   10 value from time series:   113.50     for time:  95.00     to  96.00    
WEL   no.    1 value from time series:   0.0000     for time:  95.00     to  96.00    
WEL   no.    2 value from time series:   0.0000     for time:  95.00     to  96.00    
RIV   no.    1 value from time series:   101.00     for time:  95.00     to  96.00    
RIV   no.    2 value from time series:   101.00     for time:  95.00     to  96.00    
RIV   no.    3 value from time series:   111.50     for time:  95.00     to  96.00    
RIV   no.    4 value from time series:   111.50     for time:  95.00     to  96.00    
RIV   no.    5 value from time series:   115.10     for time:  95.00     to  96.00    
RIV   no.    6 value from time series:   115.10     for time:  95.00     to  96.00    
RIV   no.    7 value from time series:   104.00     for time:  95.00     to  96.00    
RIV   no.    8 value from time series:   104.00     for time:  95.00     to  96.00    
RIV   no.    9 value from time series:   113.50     for time:  95.00     to  96.00    
RIV   no.   10 value from time series:   113.50     for time:  95.00     to  96.00    

 OUTPUT CONTROL FOR STRESS PERIOD    5   TIME STEP    5
    SAVE BUDGET
    SAVE HEAD
    SAVE HEAD FOR ALL LAYERS
 UBDSV1 SAVING          STORAGE ON UNIT   1016 AT TIME STEP      5, STRESS PERIOD      5
 UBDSV1 SAVING FLOW RIGHT FACE  ON UNIT   1016 AT TIME STEP      5, STRESS PERIOD      5
 UBDSV1 SAVING FLOW FRONT FACE  ON UNIT   1016 AT TIME STEP      5, STRESS PERIOD      5
 UBDSV1 SAVING FLOW LOWER FACE  ON UNIT   1016 AT TIME STEP      5, STRESS PERIOD      5
 UBDSV4 SAVING WELLS NEAR RIVER ON UNIT   1016 AT TIME STEP      5, STRESS PERIOD      5

 WELLS NEAR RIVER   PERIOD  5   STEP  5
 BOUNDARY      1   LAYER   2   ROW     8   COL     4   RATE     0.00000      WELL_2
 BOUNDARY      2   LAYER   2   ROW     3   COL     4   RATE     0.00000      WELL_1
 UBDSV4 SAVING RIVER            ON UNIT   1016 AT TIME STEP      5, STRESS PERIOD      5

 RIVER              PERIOD  5   STEP  5
 BOUNDARY      1   LAYER   1   ROW     1   COL    15   RATE    -4885.71    
 BOUNDARY      2   LAYER   1   ROW     2   COL    15   RATE    -6009.96      RIV2
 BOUNDARY      3   LAYER   1   ROW     3   COL    15   RATE    -2276.00      RIV3
 BOUNDARY      4   LAYER   1   ROW     4   COL    15   RATE    -3739.37    
 BOUNDARY      5   LAYER   1   ROW     5   COL    15   RATE    -2377.54    
 BOUNDARY      6   LAYER   1   ROW     6   COL    15   RATE    -1725.39    
 BOUNDARY      7   LAYER   1   ROW     7   COL    15   RATE    -6207.44      RIVX
 BOUNDARY      8   LAYER   1   ROW     8   COL    15   RATE    -6055.35      RIVX
 BOUNDARY      9   LAYER   1   ROW     9   COL    15   RATE    -2264.87      RIVX
 BOUNDARY     10   LAYER   1   ROW    10   COL    15   RATE    -3169.53    

 GHB LAKES          PERIOD  5   STEP  5
 BOUNDARY      1   LAYER   1   ROW     3   COL     1   RATE    -14732.7    
 BOUNDARY      2   LAYER   1   ROW     7   COL     1   RATE    -2051.35      GHB2_UPPER
 BOUNDARY      3   LAYER   1   ROW     7   COL     1   RATE    -13310.4      GHB2_LOWER
 UBDSV4 SAVING RECHARGE         ON UNIT   1016 AT TIME STEP      5, STRESS PERIOD      5

 RECHARGE           PERIOD  5   STEP  5
 BOUNDARY      1   LAYER   1   ROW     1   COL     1   RATE     743.333    
 BOUNDARY      2   LAYER   1   ROW     1   COL     2   RATE     743.333    
 BOUNDARY      3   LAYER   1   ROW     1   COL     3   RATE     743.333    
 BOUNDARY      4   LAYER   1   ROW     1   COL     4   RATE     743.333    
 BOUNDARY      5   LAYER   1   ROW     1   COL     5   RATE     743.333    
 BOUNDARY      6   LAYER   1   ROW     1   COL     6   RATE     743.333    
 BOUNDARY      7   LAYER   1   ROW     1   COL     7   RATE     743.333    
 BOUNDARY      8   LAYER   1   ROW     1   COL     8   RATE     743.333    
 BOUNDARY      9   LAYER   1   ROW     1   COL     9   RATE     743.333    
 BOUNDARY     10   LAYER   1   ROW     1   COL    10   RATE     743.333    
 BOUNDARY     11   LAYER   1   ROW     1   COL    11   RATE     743.333    
 BOUNDARY     12   LAYER   1   ROW     1   COL    12   RATE     743.333    
 BOUNDARY     13   LAYER   1   ROW     1   COL    13   RATE     743.333    
 BOUNDARY     14   LAYER   1   ROW     1   COL    14   RATE     743.333    
 BOUNDARY     15   LAYER   1   ROW     1   COL    15   RATE     743.333    
 BOUNDARY     16   LAYER   1   ROW     2   COL     1   RATE     743.333    
 BOUNDARY     17   LAYER   1   ROW     2   COL     2   RATE     743.333    
 BOUNDARY     18   LAYER   1   ROW     2   COL     3   RATE     743.333    
 BOUNDARY     19   LAYER   1   ROW     2   COL     4   RATE     743.333    
 BOUNDARY     20   LAYER   1   ROW     2   COL     5   RATE     743.333    
 BOUNDARY     21   LAYER   1   ROW     2   COL     6   RATE     743.333    
 BOUNDARY     22   LAYER   1   ROW     2   COL     7   RATE     743.333    
 BOUNDARY     23   LAYER   1   ROW     2   COL     8   RATE     743.333    
 BOUNDARY     24   LAYER   1   ROW     2   COL     9   RATE     743.333    
 BOUNDARY     25   LAYER   1   ROW     2   COL    10   RATE     743.333    
 BOUNDARY     26   LAYER   1   ROW     2   COL    11   RATE     743.333    
 BOUNDARY     27   LAYER   1   ROW     2   COL    12   RATE     743.333    
 BOUNDARY     28   LAYER   1   ROW     2   COL    13   RATE     743.333    
 BOUNDARY     29   LAYER   1   ROW     2   COL    14   RATE     743.333    
 BOUNDARY     30   LAYER   1   ROW     2   COL    15   RATE     743.333    
 BOUNDARY     31   LAYER   1   ROW     3   COL     1   RATE     743.333    
 BOUNDARY     32   LAYER   1   ROW     3   COL     2   RATE     743.333    
 BOUNDARY     33   LAYER   1   ROW     3   COL     3   RATE     743.333    
 BOUNDARY     34   LAYER   1   ROW     3   COL     4   RATE     743.333    
 BOUNDARY     35   LAYER   1   ROW     3   COL     5   RATE     743.333    
 BOUNDARY     36   LAYER   1   ROW     3   COL     6   RATE     743.333    
 BOUNDARY     37   LAYER   1   ROW     3   COL     7   RATE     743.333    
 BOUNDARY     38   LAYER   1   ROW     3   COL     8   RATE     743.333    
 BOUNDARY     39   LAYER   1   ROW     3   COL     9   RATE     743.333    
 BOUNDARY     40   LAYER   1   ROW     3   COL    10   RATE     743.333    
 BOUNDARY     41   LAYER   1   ROW     3   COL    11   RATE     743.333    
 BOUNDARY     42   LAYER   1   ROW     3   COL    12   RATE     743.333    
 BOUNDARY     43   LAYER   1   ROW     3   COL    13   RATE     743.333    
 BOUNDARY     44   LAYER   1   ROW     3   COL    14   RATE     743.333    
 BOUNDARY     45   LAYER   1   ROW     3   COL    15   RATE     743.333    
 BOUNDARY     46   LAYER   1   ROW     4   COL     1   RATE     743.333    
 BOUNDARY     47   LAYER   1   ROW     4   COL     2   RATE     743.333    
 BOUNDARY     48   LAYER   1   ROW     4   COL     3   RATE     743.333    
 BOUNDARY     49   LAYER   1   ROW     4   COL     4   RATE     743.333    
 BOUNDARY     50   LAYER   1   ROW     4   COL     5   RATE     743.333    
 BOUNDARY     51   LAYER   1   ROW     4   COL     6   RATE     743.333    
 BOUNDARY     52   LAYER   1   ROW     4   COL     7   RATE     743.333    
 BOUNDARY     53   LAYER   1   ROW     4   COL     8   RATE     743.333    
 BOUNDARY     54   LAYER   1   ROW     4   COL     9   RATE     743.333    
 BOUNDARY     55   LAYER   1   ROW     4   COL    10   RATE     743.333    
 BOUNDARY     56   LAYER   1   ROW     4   COL    11   RATE     743.333    
 BOUNDARY     57   LAYER   1   ROW     4   COL    12   RATE     743.333    
 BOUNDARY     58   LAYER   1   ROW     4   COL    13   RATE     743.333    
 BOUNDARY     59   LAYER   1   ROW     4   COL    14   RATE     743.333    
 BOUNDARY     60   LAYER   1   ROW     4   COL    15   RATE     743.333    
 BOUNDARY     61   LAYER   1   ROW     5   COL     1   RATE     743.333    
 BOUNDARY     62   LAYER   1   ROW     5   COL     2   RATE     743.333    
 BOUNDARY     63   LAYER   1   ROW     5   COL     3   RATE     743.333    
 BOUNDARY     64   LAYER   1   ROW     5   COL     4   RATE     743.333    
 BOUNDARY     65   LAYER   1   ROW     5   COL     5   RATE     743.333    
 BOUNDARY     66   LAYER   1   ROW     5   COL     6   RATE     743.333    
 BOUNDARY     67   LAYER   1   ROW     5   COL     7   RATE     743.333    
 BOUNDARY     68   LAYER   1   ROW     5   COL     8   RATE     743.333    
 BOUNDARY     69   LAYER   1   ROW     5   COL     9   RATE     743.333    
 BOUNDARY     70   LAYER   1   ROW     5   COL    10   RATE     743.333    
 BOUNDARY     71   LAYER   1   ROW     5   COL    11   RATE     743.333    
 BOUNDARY     72   LAYER   1   ROW     5   COL    12   RATE     743.333    
 BOUNDARY     73   LAYER   1   ROW     5   COL    13   RATE     743.333    
 BOUNDARY     74   LAYER   1   ROW     5   COL    14   RATE     743.333    
 BOUNDARY     75   LAYER   1   ROW     5   COL    15   RATE     743.333    
 BOUNDARY     76   LAYER   1   ROW     6   COL     1   RATE     743.333    
 BOUNDARY     77   LAYER   1   ROW     6   COL     2   RATE     743.333    
 BOUNDARY     78   LAYER   1   ROW     6   COL     3   RATE     743.333    
 BOUNDARY     79   LAYER   1   ROW     6   COL     4   RATE     743.333    
 BOUNDARY     80   LAYER   1   ROW     6   COL     5   RATE     743.333    
 BOUNDARY     81   LAYER   1   ROW     6   COL     6   RATE     743.333    
 BOUNDARY     82   LAYER   1   ROW     6   COL     7   RATE     743.333    
 BOUNDARY     83   LAYER   1   ROW     6   COL     8   RATE     743.333    
 BOUNDARY     84   LAYER   1   ROW     6   COL     9   RATE     743.333    
 BOUNDARY     85   LAYER   1   ROW     6   COL    10   RATE     743.333    
 BOUNDARY     86   LAYER   1   ROW     6   COL    11   RATE     743.333    
 BOUNDARY     87   LAYER   1   ROW     6   COL    12   RATE     743.333    
 BOUNDARY     88   LAYER   1   ROW     6   COL    13   RATE     743.333    
 BOUNDARY     89   LAYER   1   ROW     6   COL    14   RATE     743.333    
 BOUNDARY     90   LAYER   1   ROW     6   COL    15   RATE     743.333    
 BOUNDARY     91   LAYER   1   ROW     7   COL     1   RATE     743.333    
 BOUNDARY     92   LAYER   1   ROW     7   COL     2   RATE     743.333    
 BOUNDARY     93   LAYER   1   ROW     7   COL     3   RATE     743.333    
 BOUNDARY     94   LAYER   1   ROW     7   COL     4   RATE     743.333    
 BOUNDARY     95   LAYER   1   ROW     7   COL     5   RATE     743.333    
 BOUNDARY     96   LAYER   1   ROW     7   COL     6   RATE     743.333    
 BOUNDARY     97   LAYER   1   ROW     7   COL     7   RATE     743.333    
 BOUNDARY     98   LAYER   1   ROW     7   COL     8   RATE     743.333    
 BOUNDARY     99   LAYER   1   ROW     7   COL     9   RATE     743.333    
 BOUNDARY    100   LAYER   1   ROW     7   COL    10   RATE     743.333    
 BOUNDARY    101   LAYER   1   ROW     7   COL    11   RATE     743.333    
 BOUNDARY    102   LAYER   1   ROW     7   COL    12   RATE     743.333    
 BOUNDARY    103   LAYER   1   ROW     7   COL    13   RATE     743.333    
 BOUNDARY    104   LAYER   1   ROW     7   COL    14   RATE     743.333    
 BOUNDARY    105   LAYER   1   ROW     7   COL    15   RATE     743.333    
 BOUNDARY    106   LAYER   1   ROW     8   COL     1   RATE     743.333    
 BOUNDARY    107   LAYER   1   ROW     8   COL     2   RATE     743.333    
 BOUNDARY    108   LAYER   1   ROW     8   COL     3   RATE     743.333    
 BOUNDARY    109   LAYER   1   ROW     8   COL     4   RATE     743.333    
 BOUNDARY    110   LAYER   1   ROW     8   COL     5   RATE     743.333    
 BOUNDARY    111   LAYER   1   ROW     8   COL     6   RATE     743.333    
 BOUNDARY    112   LAYER   1   ROW     8   COL     7   RATE     743.333    
 BOUNDARY    113   LAYER   1   ROW     8   COL     8   RATE     743.333    
 BOUNDARY    114   LAYER   1   ROW     8   COL     9   RATE     743.333    
 BOUNDARY    115   LAYER   1   ROW     8   COL    10   RATE     743.333    
 BOUNDARY    116   LAYER   1   ROW     8   COL    11   RATE     743.333    
 BOUNDARY    117   LAYER   1   ROW     8   COL    12   RATE     743.333    
 BOUNDARY    118   LAYER   1   ROW     8   COL    13   RATE     743.333    
 BOUNDARY    119   LAYER   1   ROW     8   COL    14   RATE     743.333    
 BOUNDARY    120   LAYER   1   ROW     8   COL    15   RATE     743.333    
 BOUNDARY    121   LAYER   1   ROW     9   COL     1   RATE     743.333    
 BOUNDARY    122   LAYER   1   ROW     9   COL     2   RATE     743.333    
 BOUNDARY    123   LAYER   1   ROW     9   COL     3   RATE     743.333    
 BOUNDARY    124   LAYER   1   ROW     9   COL     4   RATE     743.333    
 BOUNDARY    125   LAYER   1   ROW     9   COL     5   RATE     743.333    
 BOUNDARY    126   LAYER   1   ROW     9   COL     6   RATE     743.333    
 BOUNDARY    127   LAYER   1   ROW     9   COL     7   RATE     743.333    
 BOUNDARY    128   LAYER   1   ROW     9   COL     8   RATE     743.333    
 BOUNDARY    129   LAYER   1   ROW     9   COL     9   RATE     743.333    
 BOUNDARY    130   LAYER   1   ROW     9   COL    10   RATE     743.333    
 BOUNDARY    131   LAYER   1   ROW     9   COL    11   RATE     743.333    
 BOUNDARY    132   LAYER   1   ROW     9   COL    12   RATE     743.333    
 BOUNDARY    133   LAYER   1   ROW     9   COL    13   RATE     743.333    
 BOUNDARY    134   LAYER   1   ROW     9   COL    14   RATE     743.333    
 BOUNDARY    135   LAYER   1   ROW     9   COL    15   RATE     743.333    
 BOUNDARY    136   LAYER   1   ROW    10   COL     1   RATE     743.333    
 BOUNDARY    137   LAYER   1   ROW    10   COL     2   RATE     743.333    
 BOUNDARY    138   LAYER   1   ROW    10   COL     3   RATE     743.333    
 BOUNDARY    139   LAYER   1   ROW    10   COL     4   RATE     743.333    
 BOUNDARY    140   LAYER   1   ROW    10   COL     5   RATE     743.333    
 BOUNDARY    141   LAYER   1   ROW    10   COL     6   RATE     743.333    
 BOUNDARY    142   LAYER   1   ROW    10   COL     7   RATE     743.333    
 BOUNDARY    143   LAYER   1   ROW    10   COL     8   RATE     743.333    
 BOUNDARY    144   LAYER   1   ROW    10   COL     9   RATE     743.333    
 BOUNDARY    145   LAYER   1   ROW    10   COL    10   RATE     743.333    
 BOUNDARY    146   LAYER   1   ROW    10   COL    11   RATE     743.333    
 BOUNDARY    147   LAYER   1   ROW    10   COL    12   RATE     743.333    
 BOUNDARY    148   LAYER   1   ROW    10   COL    13   RATE     743.333    
 BOUNDARY    149   LAYER   1   ROW    10   COL    14   RATE     743.333    
 BOUNDARY    150   LAYER   1   ROW    10   COL    15   RATE     743.333    
 UBDSV4 SAVING ET SEGS          ON UNIT   1016 AT TIME STEP      5, STRESS PERIOD      5

 ET SEGS            PERIOD  5   STEP  5
 BOUNDARY      1   LAYER   1   ROW     1   COL     1   RATE    -2.93449    
 BOUNDARY      2   LAYER   1   ROW     1   COL     2   RATE    -9.95986    
 BOUNDARY      3   LAYER   1   ROW     1   COL     3   RATE    -63.6156    
 BOUNDARY      4   LAYER   1   ROW     1   COL     4   RATE    -102.292    
 BOUNDARY      5   LAYER   1   ROW     1   COL     5   RATE    -102.292    
 BOUNDARY      6   LAYER   1   ROW     1   COL     6   RATE    -102.292    
 BOUNDARY      7   LAYER   1   ROW     1   COL     7   RATE    -102.292    
 BOUNDARY      8   LAYER   1   ROW     1   COL     8   RATE    -102.292    
 BOUNDARY      9   LAYER   1   ROW     1   COL     9   RATE    -102.292    
 BOUNDARY     10   LAYER   1   ROW     1   COL    10   RATE    -102.292    
 BOUNDARY     11   LAYER   1   ROW     1   COL    11   RATE    -102.292    
 BOUNDARY     12   LAYER   1   ROW     1   COL    12   RATE    -19.8320    
 BOUNDARY     13   LAYER   1   ROW     1   COL    13   RATE     0.00000    
 BOUNDARY     14   LAYER   1   ROW     1   COL    14   RATE     0.00000    
 BOUNDARY     15   LAYER   1   ROW     1   COL    15   RATE     0.00000    
 BOUNDARY     16   LAYER   1   ROW     2   COL     1   RATE     0.00000    
 BOUNDARY     17   LAYER   1   ROW     2   COL     2   RATE    -5.32250    
 BOUNDARY     18   LAYER   1   ROW     2   COL     3   RATE    -34.7606    
 BOUNDARY     19   LAYER   1   ROW     2   COL     4   RATE    -102.292    
 BOUNDARY     20   LAYER   1   ROW     2   COL     5   RATE    -102.292    
 BOUNDARY     21   LAYER   1   ROW     2   COL     6   RATE    -102.292    
 BOUNDARY     22   LAYER   1   ROW     2   COL     7   RATE    -102.292    
 BOUNDARY     23   LAYER   1   ROW     2   COL     8   RATE    -102.292    
 BOUNDARY     24   LAYER   1   ROW     2   COL     9   RATE    -102.292    
 BOUNDARY     25   LAYER   1   ROW     2   COL    10   RATE    -102.292    
 BOUNDARY     26   LAYER   1   ROW     2   COL    11   RATE    -102.292    
 BOUNDARY     27   LAYER   1   ROW     2   COL    12   RATE    -21.6157    
 BOUNDARY     28   LAYER   1   ROW     2   COL    13   RATE   -0.884870    
 BOUNDARY     29   LAYER   1   ROW     2   COL    14   RATE     0.00000    
 BOUNDARY     30   LAYER   1   ROW     2   COL    15   RATE     0.00000    
 BOUNDARY     31   LAYER   1   ROW     3   COL     1   RATE     0.00000    
 BOUNDARY     32   LAYER   1   ROW     3   COL     2   RATE     0.00000    
 BOUNDARY     33   LAYER   1   ROW     3   COL     3   RATE    -25.3475    
 BOUNDARY     34   LAYER   1   ROW     3   COL     4   RATE    -102.292    
 BOUNDARY     35   LAYER   1   ROW     3   COL     5   RATE    -102.292    
 BOUNDARY     36   LAYER   1   ROW     3   COL     6   RATE    -102.292    
 BOUNDARY     37   LAYER   1   ROW     3   COL     7   RATE    -102.292    
 BOUNDARY     38   LAYER   1   ROW     3   COL     8   RATE    -102.292    
 BOUNDARY     39   LAYER   1   ROW     3   COL     9   RATE    -102.292    
 BOUNDARY     40   LAYER   1   ROW     3   COL    10   RATE    -102.292    
 BOUNDARY     41   LAYER   1   ROW     3   COL    11   RATE    -102.292    
 BOUNDARY     42   LAYER   1   ROW     3   COL    12   RATE    -24.6224    
 BOUNDARY     43   LAYER   1   ROW     3   COL    13   RATE    -2.72101    
 BOUNDARY     44   LAYER   1   ROW     3   COL    14   RATE     0.00000    
 BOUNDARY     45   LAYER   1   ROW     3   COL    15   RATE     0.00000    
 BOUNDARY     46   LAYER   1   ROW     4   COL     1   RATE     0.00000    
 BOUNDARY     47   LAYER   1   ROW     4   COL     2   RATE    -3.77922    
 BOUNDARY     48   LAYER   1   ROW     4   COL     3   RATE    -29.3357    
 BOUNDARY     49   LAYER   1   ROW     4   COL     4   RATE    -102.292    
 BOUNDARY     50   LAYER   1   ROW     4   COL     5   RATE    -102.292    
 BOUNDARY     51   LAYER   1   ROW     4   COL     6   RATE    -102.292    
 BOUNDARY     52   LAYER   1   ROW     4   COL     7   RATE    -102.292    
 BOUNDARY     53   LAYER   1   ROW     4   COL     8   RATE    -102.292    
 BOUNDARY     54   LAYER   1   ROW     4   COL     9   RATE    -102.292    
 BOUNDARY     55   LAYER   1   ROW     4   COL    10   RATE    -102.292    
 BOUNDARY     56   LAYER   1   ROW     4   COL    11   RATE    -102.292    
 BOUNDARY     57   LAYER   1   ROW     4   COL    12   RATE    -27.4758    
 BOUNDARY     58   LAYER   1   ROW     4   COL    13   RATE    -4.20612    
 BOUNDARY     59   LAYER   1   ROW     4   COL    14   RATE     0.00000    
 BOUNDARY     60   LAYER   1   ROW     4   COL    15   RATE     0.00000    
 BOUNDARY     61   LAYER   1   ROW     5   COL     1   RATE     0.00000    
 BOUNDARY     62   LAYER   1   ROW     5   COL     2   RATE    -6.83138    
 BOUNDARY     63   LAYER   1   ROW     5   COL     3   RATE    -44.8988    
 BOUNDARY     64   LAYER   1   ROW     5   COL     4   RATE    -102.292    
 BOUNDARY     65   LAYER   1   ROW     5   COL     5   RATE    -102.292    
 BOUNDARY     66   LAYER   1   ROW     5   COL     6   RATE    -102.292    
 BOUNDARY     67   LAYER   1   ROW     5   COL     7   RATE    -102.292    
 BOUNDARY     68   LAYER   1   ROW     5   COL     8   RATE    -102.292    
 BOUNDARY     69   LAYER   1   ROW     5   COL     9   RATE    -102.292    
 BOUNDARY     70   LAYER   1   ROW     5   COL    10   RATE    -102.292    
 BOUNDARY     71   LAYER   1   ROW     5   COL    11   RATE    -102.292    
 BOUNDARY     72   LAYER   1   ROW     5   COL    12   RATE    -29.4358    
 BOUNDARY     73   LAYER   1   ROW     5   COL    13   RATE    -5.11016    
 BOUNDARY     74   LAYER   1   ROW     5   COL    14   RATE     0.00000    
 BOUNDARY     75   LAYER   1   ROW     5   COL    15   RATE     0.00000    
 BOUNDARY     76   LAYER   1   ROW     6   COL     1   RATE     0.00000    
 BOUNDARY     77   LAYER   1   ROW     6   COL     2   RATE    -5.35546    
 BOUNDARY     78   LAYER   1   ROW     6   COL     3   RATE    -48.8187    
 BOUNDARY     79   LAYER   1   ROW     6   COL     4   RATE    -102.292    
 BOUNDARY     80   LAYER   1   ROW     6   COL     5   RATE    -102.292    
 BOUNDARY     81   LAYER   1   ROW     6   COL     6   RATE    -102.292    
 BOUNDARY     82   LAYER   1   ROW     6   COL     7   RATE    -102.292    
 BOUNDARY     83   LAYER   1   ROW     6   COL     8   RATE    -102.292    
 BOUNDARY     84   LAYER   1   ROW     6   COL     9   RATE    -102.292    
 BOUNDARY     85   LAYER   1   ROW     6   COL    10   RATE    -102.292    
 BOUNDARY     86   LAYER   1   ROW     6   COL    11   RATE    -102.292    
 BOUNDARY     87   LAYER   1   ROW     6   COL    12   RATE    -30.0943    
 BOUNDARY     88   LAYER   1   ROW     6   COL    13   RATE    -5.06034    
 BOUNDARY     89   LAYER   1   ROW     6   COL    14   RATE     0.00000    
 BOUNDARY     90   LAYER   1   ROW     6   COL    15   RATE     0.00000    
 BOUNDARY     91   LAYER   1   ROW     7   COL     1   RATE     0.00000    
 BOUNDARY     92   LAYER   1   ROW     7   COL     2   RATE    -1.74004    
 BOUNDARY     93   LAYER   1   ROW     7   COL     3   RATE    -55.9032    
 BOUNDARY     94   LAYER   1   ROW     7   COL     4   RATE    -102.292    
 BOUNDARY     95   LAYER   1   ROW     7   COL     5   RATE    -102.292    
 BOUNDARY     96   LAYER   1   ROW     7   COL     6   RATE    -102.292    
 BOUNDARY     97   LAYER   1   ROW     7   COL     7   RATE    -102.292    
 BOUNDARY     98   LAYER   1   ROW     7   COL     8   RATE    -102.292    
 BOUNDARY     99   LAYER   1   ROW     7   COL     9   RATE    -102.292    
 BOUNDARY    100   LAYER   1   ROW     7   COL    10   RATE    -102.292    
 BOUNDARY    101   LAYER   1   ROW     7   COL    11   RATE    -102.292    
 BOUNDARY    102   LAYER   1   ROW     7   COL    12   RATE    -29.9460    
 BOUNDARY    103   LAYER   1   ROW     7   COL    13   RATE    -4.32671    
 BOUNDARY    104   LAYER   1   ROW     7   COL    14   RATE     0.00000    
 BOUNDARY    105   LAYER   1   ROW     7   COL    15   RATE     0.00000    
 BOUNDARY    106   LAYER   1   ROW     8   COL     1   RATE     0.00000    
 BOUNDARY    107   LAYER   1   ROW     8   COL     2   RATE    -14.0464    
 BOUNDARY    108   LAYER   1   ROW     8   COL     3   RATE    -102.292    
 BOUNDARY    109   LAYER   1   ROW     8   COL     4   RATE    -102.292    
 BOUNDARY    110   LAYER   1   ROW     8   COL     5   RATE    -102.292    
 BOUNDARY    111   LAYER   1   ROW     8   COL     6   RATE    -102.292    
 BOUNDARY    112   LAYER   1   ROW     8   COL     7   RATE    -102.292    
 BOUNDARY    113   LAYER   1   ROW     8   COL     8   RATE    -102.292    
 BOUNDARY    114   LAYER   1   ROW     8   COL     9   RATE    -102.292    
 BOUNDARY    115   LAYER   1   ROW     8   COL    10   RATE    -102.292    
 BOUNDARY    116   LAYER   1   ROW     8   COL    11   RATE    -102.292    
 BOUNDARY    117   LAYER   1   ROW     8   COL    12   RATE    -30.3740    
 BOUNDARY    118   LAYER   1   ROW     8   COL    13   RATE    -4.35944    
 BOUNDARY    119   LAYER   1   ROW     8   COL    14   RATE     0.00000    
 BOUNDARY    120   LAYER   1   ROW     8   COL    15   RATE     0.00000    
 BOUNDARY    121   LAYER   1   ROW     9   COL     1   RATE    -21.8260    
 BOUNDARY    122   LAYER   1   ROW     9   COL     2   RATE    -75.6409    
 BOUNDARY    123   LAYER   1   ROW     9   COL     3   RATE    -102.292    
 BOUNDARY    124   LAYER   1   ROW     9   COL     4   RATE    -102.292    
 BOUNDARY    125   LAYER   1   ROW     9   COL     5   RATE    -102.292    
 BOUNDARY    126   LAYER   1   ROW     9   COL     6   RATE    -102.292    
 BOUNDARY    127   LAYER   1   ROW     9   COL     7   RATE    -102.292    
 BOUNDARY    128   LAYER   1   ROW     9   COL     8   RATE    -102.292    
 BOUNDARY    129   LAYER   1   ROW     9   COL     9   RATE    -102.292    
 BOUNDARY    130   LAYER   1   ROW     9   COL    10   RATE    -102.292    
 BOUNDARY    131   LAYER   1   ROW     9   COL    11   RATE    -102.292    
 BOUNDARY    132   LAYER   1   ROW     9   COL    12   RATE    -35.1120    
 BOUNDARY    133   LAYER   1   ROW     9   COL    13   RATE    -5.23864    
 BOUNDARY    134   LAYER   1   ROW     9   COL    14   RATE     0.00000    
 BOUNDARY    135   LAYER   1   ROW     9   COL    15   RATE     0.00000    
 BOUNDARY    136   LAYER   1   ROW    10   COL     1   RATE    -84.0109    
 BOUNDARY    137   LAYER   1   ROW    10   COL     2   RATE    -102.292    
 BOUNDARY    138   LAYER   1   ROW    10   COL     3   RATE    -102.292    
 BOUNDARY    139   LAYER   1   ROW    10   COL     4   RATE    -102.292    
 BOUNDARY    140   LAYER   1   ROW    10   COL     5   RATE    -102.292    
 BOUNDARY    141   LAYER   1   ROW    10   COL     6   RATE    -102.292    
 BOUNDARY    142   LAYER   1   ROW    10   COL     7   RATE    -102.292    
 BOUNDARY    143   LAYER   1   ROW    10   COL     8   RATE    -102.292    
 BOUNDARY    144   LAYER   1   ROW    10   COL     9   RATE    -102.292    
 BOUNDARY    145   LAYER   1   ROW    10   COL    10   RATE    -102.292    
 BOUNDARY    146   LAYER   1   ROW    10   COL    11   RATE    -102.292    
 BOUNDARY    147   LAYER   1   ROW    10   COL    12   RATE    -39.4370    
 BOUNDARY    148   LAYER   1   ROW    10   COL    13   RATE    -5.79870    
 BOUNDARY    149   LAYER   1   ROW    10   COL    14   RATE     0.00000    
 BOUNDARY    150   LAYER   1   ROW    10   COL    15   RATE     0.00000    

 HEAD WILL BE SAVED ON UNIT 1017 AT END OF TIME STEP    5, STRESS PERIOD    5
WEL   no.    1 value from time series:   0.0000     for time:  96.00     to  97.00    
WEL   no.    2 value from time series:   0.0000     for time:  96.00     to  97.00    
RIV   no.    1 value from time series:   101.00     for time:  96.00     to  97.00    
RIV   no.    2 value from time series:   101.00     for time:  96.00     to  97.00    
RIV   no.    3 value from time series:   111.50     for time:  96.00     to  97.00    
RIV   no.    4 value from time series:   111.50     for time:  96.00     to  97.00    
RIV   no.    5 value from time series:   115.10     for time:  96.00     to  97.00    
RIV   no.    6 value from time series:   115.10     for time:  96.00     to  97.00    
RIV   no.    7 value from time series:   104.00     for time:  96.00     to  97.00    
RIV   no.    8 value from time series:   104.00     for time:  96.00     to  97.00    
RIV   no.    9 value from time series:   113.50     for time:  96.00     to  97.00    
RIV   no.   10 value from time series:   113.50     for time:  96.00     to  97.00    
WEL   no.    1 value from time series:   0.0000     for time:  96.00     to  97.00    
WEL   no.    2 value from time series:   0.0000     for time:  96.00     to  97.00    
RIV   no.    1 value from time series:   101.00     for time:  96.00     to  97.00    
RIV   no.    2 value from time series:   101.00     for time:  96.00     to  97.00    
RIV   no.    3 value from time series:   111.50     for time:  96.00     to  97.00    
RIV   no.    4 value from time series:   111.50     for time:  96.00     to  97.00    
RIV   no.    5 value from time series:   115.10     for time:  96.00     to  97.00    
RIV   no.    6 value from time series:   115.10     for time:  96.00     to  97.00    
RIV   no.    7 value from time series:   104.00     for time:  96.00     to  97.00    
RIV   no.    8 value from time series:   104.00     for time:  96.00     to  97.00    
RIV   no.    9 value from time series:   113.50     for time:  96.00     to  97.00    
RIV   no.   10 value from time series:   113.50     for time:  96.00     to  97.00    

 OUTPUT CONTROL FOR STRESS PERIOD    5   TIME STEP    6
    SAVE BUDGET
    SAVE HEAD
    SAVE HEAD FOR ALL LAYERS
 UBDSV1 SAVING          STORAGE ON UNIT   1016 AT TIME STEP      6, STRESS PERIOD      5
 UBDSV1 SAVING FLOW RIGHT FACE  ON UNIT   1016 AT TIME STEP      6, STRESS PERIOD      5
 UBDSV1 SAVING FLOW FRONT FACE  ON UNIT   1016 AT TIME STEP      6, STRESS PERIOD      5
 UBDSV1 SAVING FLOW LOWER FACE  ON UNIT   1016 AT TIME STEP      6, STRESS PERIOD      5
 UBDSV4 SAVING WELLS NEAR RIVER ON UNIT   1016 AT TIME STEP      6, STRESS PERIOD      5

 WELLS NEAR RIVER   PERIOD  5   STEP  6
 BOUNDARY      1   LAYER   2   ROW     8   COL     4   RATE     0.00000      WELL_2
 BOUNDARY      2   LAYER   2   ROW     3   COL     4   RATE     0.00000      WELL_1
 UBDSV4 SAVING RIVER            ON UNIT   1016 AT TIME STEP      6, STRESS PERIOD      5

 RIVER              PERIOD  5   STEP  6
 BOUNDARY      1   LAYER   1   ROW     1   COL    15   RATE    -4889.29    
 BOUNDARY      2   LAYER   1   ROW     2   COL    15   RATE    -6013.65      RIV2
 BOUNDARY      3   LAYER   1   ROW     3   COL    15   RATE    -2279.74      RIV3
 BOUNDARY      4   LAYER   1   ROW     4   COL    15   RATE    -3743.17    
 BOUNDARY      5   LAYER   1   ROW     5   COL    15   RATE    -2381.27    
 BOUNDARY      6   LAYER   1   ROW     6   COL    15   RATE    -1729.07    
 BOUNDARY      7   LAYER   1   ROW     7   COL    15   RATE    -6211.24      RIVX
 BOUNDARY      8   LAYER   1   ROW     8   COL    15   RATE    -6059.26      RIVX
 BOUNDARY      9   LAYER   1   ROW     9   COL    15   RATE    -2268.85      RIVX
 BOUNDARY     10   LAYER   1   ROW    10   COL    15   RATE    -3173.63    

 GHB LAKES          PERIOD  5   STEP  6
 BOUNDARY      1   LAYER   1   ROW     3   COL     1   RATE    -14739.5    
 BOUNDARY      2   LAYER   1   ROW     7   COL     1   RATE    -2056.84      GHB2_UPPER
 BOUNDARY      3   LAYER   1   ROW     7   COL     1   RATE    -13312.4      GHB2_LOWER
 UBDSV4 SAVING RECHARGE         ON UNIT   1016 AT TIME STEP      6, STRESS PERIOD      5

 RECHARGE           PERIOD  5   STEP  6
 BOUNDARY      1   LAYER   1   ROW     1   COL     1   RATE     746.667    
 BOUNDARY      2   LAYER   1   ROW     1   COL     2   RATE     746.667    
 BOUNDARY      3   LAYER   1   ROW     1   COL     3   RATE     746.667    
 BOUNDARY      4   LAYER   1   ROW     1   COL     4   RATE     746.667    
 BOUNDARY      5   LAYER   1   ROW     1   COL     5   RATE     746.667    
 BOUNDARY      6   LAYER   1   ROW     1   COL     6   RATE     746.667    
 BOUNDARY      7   LAYER   1   ROW     1   COL     7   RATE     746.667    
 BOUNDARY      8   LAYER   1   ROW     1   COL     8   RATE     746.667    
 BOUNDARY      9   LAYER   1   ROW     1   COL     9   RATE     746.667    
 BOUNDARY     10   LAYER   1   ROW     1   COL    10   RATE     746.667    
 BOUNDARY     11   LAYER   1   ROW     1   COL    11   RATE     746.667    
 BOUNDARY     12   LAYER   1   ROW     1   COL    12   RATE     746.667    
 BOUNDARY     13   LAYER   1   ROW     1   COL    13   RATE     746.667    
 BOUNDARY     14   LAYER   1   ROW     1   COL    14   RATE     746.667    
 BOUNDARY     15   LAYER   1   ROW     1   COL    15   RATE     746.667    
 BOUNDARY     16   LAYER   1   ROW     2   COL     1   RATE     746.667    
 BOUNDARY     17   LAYER   1   ROW     2   COL     2   RATE     746.667    
 BOUNDARY     18   LAYER   1   ROW     2   COL     3   RATE     746.667    
 BOUNDARY     19   LAYER   1   ROW     2   COL     4   RATE     746.667    
 BOUNDARY     20   LAYER   1   ROW     2   COL     5   RATE     746.667    
 BOUNDARY     21   LAYER   1   ROW     2   COL     6   RATE     746.667    
 BOUNDARY     22   LAYER   1   ROW     2   COL     7   RATE     746.667    
 BOUNDARY     23   LAYER   1   ROW     2   COL     8   RATE     746.667    
 BOUNDARY     24   LAYER   1   ROW     2   COL     9   RATE     746.667    
 BOUNDARY     25   LAYER   1   ROW     2   COL    10   RATE     746.667    
 BOUNDARY     26   LAYER   1   ROW     2   COL    11   RATE     746.667    
 BOUNDARY     27   LAYER   1   ROW     2   COL    12   RATE     746.667    
 BOUNDARY     28   LAYER   1   ROW     2   COL    13   RATE     746.667    
 BOUNDARY     29   LAYER   1   ROW     2   COL    14   RATE     746.667    
 BOUNDARY     30   LAYER   1   ROW     2   COL    15   RATE     746.667    
 BOUNDARY     31   LAYER   1   ROW     3   COL     1   RATE     746.667    
 BOUNDARY     32   LAYER   1   ROW     3   COL     2   RATE     746.667    
 BOUNDARY     33   LAYER   1   ROW     3   COL     3   RATE     746.667    
 BOUNDARY     34   LAYER   1   ROW     3   COL     4   RATE     746.667    
 BOUNDARY     35   LAYER   1   ROW     3   COL     5   RATE     746.667    
 BOUNDARY     36   LAYER   1   ROW     3   COL     6   RATE     746.667    
 BOUNDARY     37   LAYER   1   ROW     3   COL     7   RATE     746.667    
 BOUNDARY     38   LAYER   1   ROW     3   COL     8   RATE     746.667    
 BOUNDARY     39   LAYER   1   ROW     3   COL     9   RATE     746.667    
 BOUNDARY     40   LAYER   1   ROW     3   COL    10   RATE     746.667    
 BOUNDARY     41   LAYER   1   ROW     3   COL    11   RATE     746.667    
 BOUNDARY     42   LAYER   1   ROW     3   COL    12   RATE     746.667    
 BOUNDARY     43   LAYER   1   ROW     3   COL    13   RATE     746.667    
 BOUNDARY     44   LAYER   1   ROW     3   COL    14   RATE     746.667    
 BOUNDARY     45   LAYER   1   ROW     3   COL    15   RATE     746.667    
 BOUNDARY     46   LAYER   1   ROW     4   COL     1   RATE     746.667    
 BOUNDARY     47   LAYER   1   ROW     4   COL     2   RATE     746.667    
 BOUNDARY     48   LAYER   1   ROW     4   COL     3   RATE     746.667    
 BOUNDARY     49   LAYER   1   ROW     4   COL     4   RATE     746.667    
 BOUNDARY     50   LAYER   1   ROW     4   COL     5   RATE     746.667    
 BOUNDARY     51   LAYER   1   ROW     4   COL     6   RATE     746.667    
 BOUNDARY     52   LAYER   1   ROW     4   COL     7   RATE     746.667    
 BOUNDARY     53   LAYER   1   ROW     4   COL     8   RATE     746.667    
 BOUNDARY     54   LAYER   1   ROW     4   COL     9   RATE     746.667    
 BOUNDARY     55   LAYER   1   ROW     4   COL    10   RATE     746.667    
 BOUNDARY     56   LAYER   1   ROW     4   COL    11   RATE     746.667    
 BOUNDARY     57   LAYER   1   ROW     4   COL    12   RATE     746.667    
 BOUNDARY     58   LAYER   1   ROW     4   COL    13   RATE     746.667    
 BOUNDARY     59   LAYER   1   ROW     4   COL    14   RATE     746.667    
 BOUNDARY     60   LAYER   1   ROW     4   COL    15   RATE     746.667    
 BOUNDARY     61   LAYER   1   ROW     5   COL     1   RATE     746.667    
 BOUNDARY     62   LAYER   1   ROW     5   COL     2   RATE     746.667    
 BOUNDARY     63   LAYER   1   ROW     5   COL     3   RATE     746.667    
 BOUNDARY     64   LAYER   1   ROW     5   COL     4   RATE     746.667    
 BOUNDARY     65   LAYER   1   ROW     5   COL     5   RATE     746.667    
 BOUNDARY     66   LAYER   1   ROW     5   COL     6   RATE     746.667    
 BOUNDARY     67   LAYER   1   ROW     5   COL     7   RATE     746.667    
 BOUNDARY     68   LAYER   1   ROW     5   COL     8   RATE     746.667    
 BOUNDARY     69   LAYER   1   ROW     5   COL     9   RATE     746.667    
 BOUNDARY     70   LAYER   1   ROW     5   COL    10   RATE     746.667    
 BOUNDARY     71   LAYER   1   ROW     5   COL    11   RATE     746.667    
 BOUNDARY     72   LAYER   1   ROW     5   COL    12   RATE     746.667    
 BOUNDARY     73   LAYER   1   ROW     5   COL    13   RATE     746.667    
 BOUNDARY     74   LAYER   1   ROW     5   COL    14   RATE     746.667    
 BOUNDARY     75   LAYER   1   ROW     5   COL    15   RATE     746.667    
 BOUNDARY     76   LAYER   1   ROW     6   COL     1   RATE     746.667    
 BOUNDARY     77   LAYER   1   ROW     6   COL     2   RATE     746.667    
 BOUNDARY     78   LAYER   1   ROW     6   COL     3   RATE     746.667    
 BOUNDARY     79   LAYER   1   ROW     6   COL     4   RATE     746.667    
 BOUNDARY     80   LAYER   1   ROW     6   COL     5   RATE     746.667    
 BOUNDARY     81   LAYER   1   ROW     6   COL     6   RATE     746.667    
 BOUNDARY     82   LAYER   1   ROW     6   COL     7   RATE     746.667    
 BOUNDARY     83   LAYER   1   ROW     6   COL     8   RATE     746.667    
 BOUNDARY     84   LAYER   1   ROW     6   COL     9   RATE     746.667    
 BOUNDARY     85   LAYER   1   ROW     6   COL    10   RATE     746.667    
 BOUNDARY     86   LAYER   1   ROW     6   COL    11   RATE     746.667    
 BOUNDARY     87   LAYER   1   ROW     6   COL    12   RATE     746.667    
 BOUNDARY     88   LAYER   1   ROW     6   COL    13   RATE     746.667    
 BOUNDARY     89   LAYER   1   ROW     6   COL    14   RATE     746.667    
 BOUNDARY     90   LAYER   1   ROW     6   COL    15   RATE     746.667    
 BOUNDARY     91   LAYER   1   ROW     7   COL     1   RATE     746.667    
 BOUNDARY     92   LAYER   1   ROW     7   COL     2   RATE     746.667    
 BOUNDARY     93   LAYER   1   ROW     7   COL     3   RATE     746.667    
 BOUNDARY     94   LAYER   1   ROW     7   COL     4   RATE     746.667    
 BOUNDARY     95   LAYER   1   ROW     7   COL     5   RATE     746.667    
 BOUNDARY     96   LAYER   1   ROW     7   COL     6   RATE     746.667    
 BOUNDARY     97   LAYER   1   ROW     7   COL     7   RATE     746.667    
 BOUNDARY     98   LAYER   1   ROW     7   COL     8   RATE     746.667    
 BOUNDARY     99   LAYER   1   ROW     7   COL     9   RATE     746.667    
 BOUNDARY    100   LAYER   1   ROW     7   COL    10   RATE     746.667    
 BOUNDARY    101   LAYER   1   ROW     7   COL    11   RATE     746.667    
 BOUNDARY    102   LAYER   1   ROW     7   COL    12   RATE     746.667    
 BOUNDARY    103   LAYER   1   ROW     7   COL    13   RATE     746.667    
 BOUNDARY    104   LAYER   1   ROW     7   COL    14   RATE     746.667    
 BOUNDARY    105   LAYER   1   ROW     7   COL    15   RATE     746.667    
 BOUNDARY    106   LAYER   1   ROW     8   COL     1   RATE     746.667    
 BOUNDARY    107   LAYER   1   ROW     8   COL     2   RATE     746.667    
 BOUNDARY    108   LAYER   1   ROW     8   COL     3   RATE     746.667    
 BOUNDARY    109   LAYER   1   ROW     8   COL     4   RATE     746.667    
 BOUNDARY    110   LAYER   1   ROW     8   COL     5   RATE     746.667    
 BOUNDARY    111   LAYER   1   ROW     8   COL     6   RATE     746.667    
 BOUNDARY    112   LAYER   1   ROW     8   COL     7   RATE     746.667    
 BOUNDARY    113   LAYER   1   ROW     8   COL     8   RATE     746.667    
 BOUNDARY    114   LAYER   1   ROW     8   COL     9   RATE     746.667    
 BOUNDARY    115   LAYER   1   ROW     8   COL    10   RATE     746.667    
 BOUNDARY    116   LAYER   1   ROW     8   COL    11   RATE     746.667    
 BOUNDARY    117   LAYER   1   ROW     8   COL    12   RATE     746.667    
 BOUNDARY    118   LAYER   1   ROW     8   COL    13   RATE     746.667    
 BOUNDARY    119   LAYER   1   ROW     8   COL    14   RATE     746.667    
 BOUNDARY    120   LAYER   1   ROW     8   COL    15   RATE     746.667    
 BOUNDARY    121   LAYER   1   ROW     9   COL     1   RATE     746.667    
 BOUNDARY    122   LAYER   1   ROW     9   COL     2   RATE     746.667    
 BOUNDARY    123   LAYER   1   ROW     9   COL     3   RATE     746.667    
 BOUNDARY    124   LAYER   1   ROW     9   COL     4   RATE     746.667    
 BOUNDARY    125   LAYER   1   ROW     9   COL     5   RATE     746.667    
 BOUNDARY    126   LAYER   1   ROW     9   COL     6   RATE     746.667    
 BOUNDARY    127   LAYER   1   ROW     9   COL     7   RATE     746.667    
 BOUNDARY    128   LAYER   1   ROW     9   COL     8   RATE     746.667    
 BOUNDARY    129   LAYER   1   ROW     9   COL     9   RATE     746.667    
 BOUNDARY    130   LAYER   1   ROW     9   COL    10   RATE     746.667    
 BOUNDARY    131   LAYER   1   ROW     9   COL    11   RATE     746.667    
 BOUNDARY    132   LAYER   1   ROW     9   COL    12   RATE     746.667    
 BOUNDARY    133   LAYER   1   ROW     9   COL    13   RATE     746.667    
 BOUNDARY    134   LAYER   1   ROW     9   COL    14   RATE     746.667    
 BOUNDARY    135   LAYER   1   ROW     9   COL    15   RATE     746.667    
 BOUNDARY    136   LAYER   1   ROW    10   COL     1   RATE     746.667    
 BOUNDARY    137   LAYER   1   ROW    10   COL     2   RATE     746.667    
 BOUNDARY    138   LAYER   1   ROW    10   COL     3   RATE     746.667    
 BOUNDARY    139   LAYER   1   ROW    10   COL     4   RATE     746.667    
 BOUNDARY    140   LAYER   1   ROW    10   COL     5   RATE     746.667    
 BOUNDARY    141   LAYER   1   ROW    10   COL     6   RATE     746.667    
 BOUNDARY    142   LAYER   1   ROW    10   COL     7   RATE     746.667    
 BOUNDARY    143   LAYER   1   ROW    10   COL     8   RATE     746.667    
 BOUNDARY    144   LAYER   1   ROW    10   COL     9   RATE     746.667    
 BOUNDARY    145   LAYER   1   ROW    10   COL    10   RATE     746.667    
 BOUNDARY    146   LAYER   1   ROW    10   COL    11   RATE     746.667    
 BOUNDARY    147   LAYER   1   ROW    10   COL    12   RATE     746.667    
 BOUNDARY    148   LAYER   1   ROW    10   COL    13   RATE     746.667    
 BOUNDARY    149   LAYER   1   ROW    10   COL    14   RATE     746.667    
 BOUNDARY    150   LAYER   1   ROW    10   COL    15   RATE     746.667    
 UBDSV4 SAVING ET SEGS          ON UNIT   1016 AT TIME STEP      6, STRESS PERIOD      5

 ET SEGS            PERIOD  5   STEP  6
 BOUNDARY      1   LAYER   1   ROW     1   COL     1   RATE    -2.96569    
 BOUNDARY      2   LAYER   1   ROW     1   COL     2   RATE    -10.0199    
 BOUNDARY      3   LAYER   1   ROW     1   COL     3   RATE    -64.2099    
 BOUNDARY      4   LAYER   1   ROW     1   COL     4   RATE    -102.708    
 BOUNDARY      5   LAYER   1   ROW     1   COL     5   RATE    -102.708    
 BOUNDARY      6   LAYER   1   ROW     1   COL     6   RATE    -102.708    
 BOUNDARY      7   LAYER   1   ROW     1   COL     7   RATE    -102.708    
 BOUNDARY      8   LAYER   1   ROW     1   COL     8   RATE    -102.708    
 BOUNDARY      9   LAYER   1   ROW     1   COL     9   RATE    -102.708    
 BOUNDARY     10   LAYER   1   ROW     1   COL    10   RATE    -102.708    
 BOUNDARY     11   LAYER   1   ROW     1   COL    11   RATE    -102.708    
 BOUNDARY     12   LAYER   1   ROW     1   COL    12   RATE    -19.9791    
 BOUNDARY     13   LAYER   1   ROW     1   COL    13   RATE     0.00000    
 BOUNDARY     14   LAYER   1   ROW     1   COL    14   RATE     0.00000    
 BOUNDARY     15   LAYER   1   ROW     1   COL    15   RATE     0.00000    
 BOUNDARY     16   LAYER   1   ROW     2   COL     1   RATE     0.00000    
 BOUNDARY     17   LAYER   1   ROW     2   COL     2   RATE    -5.36343    
 BOUNDARY     18   LAYER   1   ROW     2   COL     3   RATE    -35.2461    
 BOUNDARY     19   LAYER   1   ROW     2   COL     4   RATE    -102.708    
 BOUNDARY     20   LAYER   1   ROW     2   COL     5   RATE    -102.708    
 BOUNDARY     21   LAYER   1   ROW     2   COL     6   RATE    -102.708    
 BOUNDARY     22   LAYER   1   ROW     2   COL     7   RATE    -102.708    
 BOUNDARY     23   LAYER   1   ROW     2   COL     8   RATE    -102.708    
 BOUNDARY     24   LAYER   1   ROW     2   COL     9   RATE    -102.708    
 BOUNDARY     25   LAYER   1   ROW     2   COL    10   RATE    -102.708    
 BOUNDARY     26   LAYER   1   ROW     2   COL    11   RATE    -102.708    
 BOUNDARY     27   LAYER   1   ROW     2   COL    12   RATE    -21.7701    
 BOUNDARY     28   LAYER   1   ROW     2   COL    13   RATE   -0.907961    
 BOUNDARY     29   LAYER   1   ROW     2   COL    14   RATE     0.00000    
 BOUNDARY     30   LAYER   1   ROW     2   COL    15   RATE     0.00000    
 BOUNDARY     31   LAYER   1   ROW     3   COL     1   RATE     0.00000    
 BOUNDARY     32   LAYER   1   ROW     3   COL     2   RATE     0.00000    
 BOUNDARY     33   LAYER   1   ROW     3   COL     3   RATE    -25.5156    
 BOUNDARY     34   LAYER   1   ROW     3   COL     4   RATE    -102.708    
 BOUNDARY     35   LAYER   1   ROW     3   COL     5   RATE    -102.708    
 BOUNDARY     36   LAYER   1   ROW     3   COL     6   RATE    -102.708    
 BOUNDARY     37   LAYER   1   ROW     3   COL     7   RATE    -102.708    
 BOUNDARY     38   LAYER   1   ROW     3   COL     8   RATE    -102.708    
 BOUNDARY     39   LAYER   1   ROW     3   COL     9   RATE    -102.708    
 BOUNDARY     40   LAYER   1   ROW     3   COL    10   RATE    -102.708    
 BOUNDARY     41   LAYER   1   ROW     3   COL    11   RATE    -102.708    
 BOUNDARY     42   LAYER   1   ROW     3   COL    12   RATE    -24.7890    
 BOUNDARY     43   LAYER   1   ROW     3   COL    13   RATE    -2.75163    
 BOUNDARY     44   LAYER   1   ROW     3   COL    14   RATE     0.00000    
 BOUNDARY     45   LAYER   1   ROW     3   COL    15   RATE     0.00000    
 BOUNDARY     46   LAYER   1   ROW     4   COL     1   RATE     0.00000    
 BOUNDARY     47   LAYER   1   ROW     4   COL     2   RATE    -3.81371    
 BOUNDARY     48   LAYER   1   ROW     4   COL     3   RATE    -29.5200    
 BOUNDARY     49   LAYER   1   ROW     4   COL     4   RATE    -102.708    
 BOUNDARY     50   LAYER   1   ROW     4   COL     5   RATE    -102.708    
 BOUNDARY     51   LAYER   1   ROW     4   COL     6   RATE    -102.708    
 BOUNDARY     52   LAYER   1   ROW     4   COL     7   RATE    -102.708    
 BOUNDARY     53   LAYER   1   ROW     4   COL     8   RATE    -102.708    
 BOUNDARY     54   LAYER   1   ROW     4   COL     9   RATE    -102.708    
 BOUNDARY     55   LAYER   1   ROW     4   COL    10   RATE    -102.708    
 BOUNDARY     56   LAYER   1   ROW     4   COL    11   RATE    -102.708    
 BOUNDARY     57   LAYER   1   ROW     4   COL    12   RATE    -27.6538    
 BOUNDARY     58   LAYER   1   ROW     4   COL    13   RATE    -4.24264    
 BOUNDARY     59   LAYER   1   ROW     4   COL    14   RATE     0.00000    
 BOUNDARY     60   LAYER   1   ROW     4   COL    15   RATE     0.00000    
 BOUNDARY     61   LAYER   1   ROW     5   COL     1   RATE     0.00000    
 BOUNDARY     62   LAYER   1   ROW     5   COL     2   RATE    -6.87855    
 BOUNDARY     63   LAYER   1   ROW     5   COL     3   RATE    -45.4160    
 BOUNDARY     64   LAYER   1   ROW     5   COL     4   RATE    -102.708    
 BOUNDARY     65   LAYER   1   ROW     5   COL     5   RATE    -102.708    
 BOUNDARY     66   LAYER   1   ROW     5   COL     6   RATE    -102.708    
 BOUNDARY     67   LAYER   1   ROW     5   COL     7   RATE    -102.708    
 BOUNDARY     68   LAYER   1   ROW     5   COL     8   RATE    -102.708    
 BOUNDARY     69   LAYER   1   ROW     5   COL     9   RATE    -102.708    
 BOUNDARY     70   LAYER   1   ROW     5   COL    10   RATE    -102.708    
 BOUNDARY     71   LAYER   1   ROW     5   COL    11   RATE    -102.708    
 BOUNDARY     72   LAYER   1   ROW     5   COL    12   RATE    -29.6213    
 BOUNDARY     73   LAYER   1   ROW     5   COL    13   RATE    -5.15011    
 BOUNDARY     74   LAYER   1   ROW     5   COL    14   RATE     0.00000    
 BOUNDARY     75   LAYER   1   ROW     5   COL    15   RATE     0.00000    
 BOUNDARY     76   LAYER   1   ROW     6   COL     1   RATE     0.00000    
 BOUNDARY     77   LAYER   1   ROW     6   COL     2   RATE    -5.39618    
 BOUNDARY     78   LAYER   1   ROW     6   COL     3   RATE    -49.3489    
 BOUNDARY     79   LAYER   1   ROW     6   COL     4   RATE    -102.708    
 BOUNDARY     80   LAYER   1   ROW     6   COL     5   RATE    -102.708    
 BOUNDARY     81   LAYER   1   ROW     6   COL     6   RATE    -102.708    
 BOUNDARY     82   LAYER   1   ROW     6   COL     7   RATE    -102.708    
 BOUNDARY     83   LAYER   1   ROW     6   COL     8   RATE    -102.708    
 BOUNDARY     84   LAYER   1   ROW     6   COL     9   RATE    -102.708    
 BOUNDARY     85   LAYER   1   ROW     6   COL    10   RATE    -102.708    
 BOUNDARY     86   LAYER   1   ROW     6   COL    11   RATE    -102.708    
 BOUNDARY     87   LAYER   1   ROW     6   COL    12   RATE    -30.2824    
 BOUNDARY     88   LAYER   1   ROW     6   COL    13   RATE    -5.09998    
 BOUNDARY     89   LAYER   1   ROW     6   COL    14   RATE     0.00000    
 BOUNDARY     90   LAYER   1   ROW     6   COL    15   RATE     0.00000    
 BOUNDARY     91   LAYER   1   ROW     7   COL     1   RATE     0.00000    
 BOUNDARY     92   LAYER   1   ROW     7   COL     2   RATE    -1.76486    
 BOUNDARY     93   LAYER   1   ROW     7   COL     3   RATE    -56.4591    
 BOUNDARY     94   LAYER   1   ROW     7   COL     4   RATE    -102.708    
 BOUNDARY     95   LAYER   1   ROW     7   COL     5   RATE    -102.708    
 BOUNDARY     96   LAYER   1   ROW     7   COL     6   RATE    -102.708    
 BOUNDARY     97   LAYER   1   ROW     7   COL     7   RATE    -102.708    
 BOUNDARY     98   LAYER   1   ROW     7   COL     8   RATE    -102.708    
 BOUNDARY     99   LAYER   1   ROW     7   COL     9   RATE    -102.708    
 BOUNDARY    100   LAYER   1   ROW     7   COL    10   RATE    -102.708    
 BOUNDARY    101   LAYER   1   ROW     7   COL    11   RATE    -102.708    
 BOUNDARY    102   LAYER   1   ROW     7   COL    12   RATE    -30.1338    
 BOUNDARY    103   LAYER   1   ROW     7   COL    13   RATE    -4.36357    
 BOUNDARY    104   LAYER   1   ROW     7   COL    14   RATE     0.00000    
 BOUNDARY    105   LAYER   1   ROW     7   COL    15   RATE     0.00000    
 BOUNDARY    106   LAYER   1   ROW     8   COL     1   RATE     0.00000    
 BOUNDARY    107   LAYER   1   ROW     8   COL     2   RATE    -14.1666    
 BOUNDARY    108   LAYER   1   ROW     8   COL     3   RATE    -102.708    
 BOUNDARY    109   LAYER   1   ROW     8   COL     4   RATE    -102.708    
 BOUNDARY    110   LAYER   1   ROW     8   COL     5   RATE    -102.708    
 BOUNDARY    111   LAYER   1   ROW     8   COL     6   RATE    -102.708    
 BOUNDARY    112   LAYER   1   ROW     8   COL     7   RATE    -102.708    
 BOUNDARY    113   LAYER   1   ROW     8   COL     8   RATE    -102.708    
 BOUNDARY    114   LAYER   1   ROW     8   COL     9   RATE    -102.708    
 BOUNDARY    115   LAYER   1   ROW     8   COL    10   RATE    -102.708    
 BOUNDARY    116   LAYER   1   ROW     8   COL    11   RATE    -102.708    
 BOUNDARY    117   LAYER   1   ROW     8   COL    12   RATE    -30.5640    
 BOUNDARY    118   LAYER   1   ROW     8   COL    13   RATE    -4.39686    
 BOUNDARY    119   LAYER   1   ROW     8   COL    14   RATE     0.00000    
 BOUNDARY    120   LAYER   1   ROW     8   COL    15   RATE     0.00000    
 BOUNDARY    121   LAYER   1   ROW     9   COL     1   RATE    -21.9783    
 BOUNDARY    122   LAYER   1   ROW     9   COL     2   RATE    -76.2794    
 BOUNDARY    123   LAYER   1   ROW     9   COL     3   RATE    -102.708    
 BOUNDARY    124   LAYER   1   ROW     9   COL     4   RATE    -102.708    
 BOUNDARY    125   LAYER   1   ROW     9   COL     5   RATE    -102.708    
 BOUNDARY    126   LAYER   1   ROW     9   COL     6   RATE    -102.708    
 BOUNDARY    127   LAYER   1   ROW     9   COL     7   RATE    -102.708    
 BOUNDARY    128   LAYER   1   ROW     9   COL     8   RATE    -102.708    
 BOUNDARY    129   LAYER   1   ROW     9   COL     9   RATE    -102.708    
 BOUNDARY    130   LAYER   1   ROW     9   COL    10   RATE    -102.708    
 BOUNDARY    131   LAYER   1   ROW     9   COL    11   RATE    -102.708    
 BOUNDARY    132   LAYER   1   ROW     9   COL    12   RATE    -35.6026    
 BOUNDARY    133   LAYER   1   ROW     9   COL    13   RATE    -5.28009    
 BOUNDARY    134   LAYER   1   ROW     9   COL    14   RATE     0.00000    
 BOUNDARY    135   LAYER   1   ROW     9   COL    15   RATE     0.00000    
 BOUNDARY    136   LAYER   1   ROW    10   COL     1   RATE    -84.6807    
 BOUNDARY    137   LAYER   1   ROW    10   COL     2   RATE    -102.708    
 BOUNDARY    138   LAYER   1   ROW    10   COL     3   RATE    -102.708    
 BOUNDARY    139   LAYER   1   ROW    10   COL     4   RATE    -102.708    
 BOUNDARY    140   LAYER   1   ROW    10   COL     5   RATE    -102.708    
 BOUNDARY    141   LAYER   1   ROW    10   COL     6   RATE    -102.708    
 BOUNDARY    142   LAYER   1   ROW    10   COL     7   RATE    -102.708    
 BOUNDARY    143   LAYER   1   ROW    10   COL     8   RATE    -102.708    
 BOUNDARY    144   LAYER   1   ROW    10   COL     9   RATE    -102.708    
 BOUNDARY    145   LAYER   1   ROW    10   COL    10   RATE    -102.708    
 BOUNDARY    146   LAYER   1   ROW    10   COL    11   RATE    -102.708    
 BOUNDARY    147   LAYER   1   ROW    10   COL    12   RATE    -39.9454    
 BOUNDARY    148   LAYER   1   ROW    10   COL    13   RATE    -5.84270    
 BOUNDARY    149   LAYER   1   ROW    10   COL    14   RATE     0.00000    
 BOUNDARY    150   LAYER   1   ROW    10   COL    15   RATE     0.00000    

 HEAD WILL BE SAVED ON UNIT 1017 AT END OF TIME STEP    6, STRESS PERIOD    5
WEL   no.    1 value from time series:   0.0000     for time:  97.00     to  98.00    
WEL   no.    2 value from time series:   0.0000     for time:  97.00     to  98.00    
RIV   no.    1 value from time series:   101.00     for time:  97.00     to  98.00    
RIV   no.    2 value from time series:   101.00     for time:  97.00     to  98.00    
RIV   no.    3 value from time series:   111.50     for time:  97.00     to  98.00    
RIV   no.    4 value from time series:   111.50     for time:  97.00     to  98.00    
RIV   no.    5 value from time series:   115.10     for time:  97.00     to  98.00    
RIV   no.    6 value from time series:   115.10     for time:  97.00     to  98.00    
RIV   no.    7 value from time series:   104.00     for time:  97.00     to  98.00    
RIV   no.    8 value from time series:   104.00     for time:  97.00     to  98.00    
RIV   no.    9 value from time series:   113.50     for time:  97.00     to  98.00    
RIV   no.   10 value from time series:   113.50     for time:  97.00     to  98.00    
WEL   no.    1 value from time series:   0.0000     for time:  97.00     to  98.00    
WEL   no.    2 value from time series:   0.0000     for time:  97.00     to  98.00    
RIV   no.    1 value from time series:   101.00     for time:  97.00     to  98.00    
RIV   no.    2 value from time series:   101.00     for time:  97.00     to  98.00    
RIV   no.    3 value from time series:   111.50     for time:  97.00     to  98.00    
RIV   no.    4 value from time series:   111.50     for time:  97.00     to  98.00    
RIV   no.    5 value from time series:   115.10     for time:  97.00     to  98.00    
RIV   no.    6 value from time series:   115.10     for time:  97.00     to  98.00    
RIV   no.    7 value from time series:   104.00     for time:  97.00     to  98.00    
RIV   no.    8 value from time series:   104.00     for time:  97.00     to  98.00    
RIV   no.    9 value from time series:   113.50     for time:  97.00     to  98.00    
RIV   no.   10 value from time series:   113.50     for time:  97.00     to  98.00    

 OUTPUT CONTROL FOR STRESS PERIOD    5   TIME STEP    7
    SAVE BUDGET
    SAVE HEAD
    SAVE HEAD FOR ALL LAYERS
 UBDSV1 SAVING          STORAGE ON UNIT   1016 AT TIME STEP      7, STRESS PERIOD      5
 UBDSV1 SAVING FLOW RIGHT FACE  ON UNIT   1016 AT TIME STEP      7, STRESS PERIOD      5
 UBDSV1 SAVING FLOW FRONT FACE  ON UNIT   1016 AT TIME STEP      7, STRESS PERIOD      5
 UBDSV1 SAVING FLOW LOWER FACE  ON UNIT   1016 AT TIME STEP      7, STRESS PERIOD      5
 UBDSV4 SAVING WELLS NEAR RIVER ON UNIT   1016 AT TIME STEP      7, STRESS PERIOD      5

 WELLS NEAR RIVER   PERIOD  5   STEP  7
 BOUNDARY      1   LAYER   2   ROW     8   COL     4   RATE     0.00000      WELL_2
 BOUNDARY      2   LAYER   2   ROW     3   COL     4   RATE     0.00000      WELL_1
 UBDSV4 SAVING RIVER            ON UNIT   1016 AT TIME STEP      7, STRESS PERIOD      5

 RIVER              PERIOD  5   STEP  7
 BOUNDARY      1   LAYER   1   ROW     1   COL    15   RATE    -4892.92    
 BOUNDARY      2   LAYER   1   ROW     2   COL    15   RATE    -6017.39      RIV2
 BOUNDARY      3   LAYER   1   ROW     3   COL    15   RATE    -2283.52      RIV3
 BOUNDARY      4   LAYER   1   ROW     4   COL    15   RATE    -3747.01    
 BOUNDARY      5   LAYER   1   ROW     5   COL    15   RATE    -2385.04    
 BOUNDARY      6   LAYER   1   ROW     6   COL    15   RATE    -1732.80    
 BOUNDARY      7   LAYER   1   ROW     7   COL    15   RATE    -6215.08      RIVX
 BOUNDARY      8   LAYER   1   ROW     8   COL    15   RATE    -6063.21      RIVX
 BOUNDARY      9   LAYER   1   ROW     9   COL    15   RATE    -2272.87      RIVX
 BOUNDARY     10   LAYER   1   ROW    10   COL    15   RATE    -3177.76    

 GHB LAKES          PERIOD  5   STEP  7
 BOUNDARY      1   LAYER   1   ROW     3   COL     1   RATE    -14746.4    
 BOUNDARY      2   LAYER   1   ROW     7   COL     1   RATE    -2062.39      GHB2_UPPER
 BOUNDARY      3   LAYER   1   ROW     7   COL     1   RATE    -13314.4      GHB2_LOWER
 UBDSV4 SAVING RECHARGE         ON UNIT   1016 AT TIME STEP      7, STRESS PERIOD      5

 RECHARGE           PERIOD  5   STEP  7
 BOUNDARY      1   LAYER   1   ROW     1   COL     1   RATE     750.000    
 BOUNDARY      2   LAYER   1   ROW     1   COL     2   RATE     750.000    
 BOUNDARY      3   LAYER   1   ROW     1   COL     3   RATE     750.000    
 BOUNDARY      4   LAYER   1   ROW     1   COL     4   RATE     750.000    
 BOUNDARY      5   LAYER   1   ROW     1   COL     5   RATE     750.000    
 BOUNDARY      6   LAYER   1   ROW     1   COL     6   RATE     750.000    
 BOUNDARY      7   LAYER   1   ROW     1   COL     7   RATE     750.000    
 BOUNDARY      8   LAYER   1   ROW     1   COL     8   RATE     750.000    
 BOUNDARY      9   LAYER   1   ROW     1   COL     9   RATE     750.000    
 BOUNDARY     10   LAYER   1   ROW     1   COL    10   RATE     750.000    
 BOUNDARY     11   LAYER   1   ROW     1   COL    11   RATE     750.000    
 BOUNDARY     12   LAYER   1   ROW     1   COL    12   RATE     750.000    
 BOUNDARY     13   LAYER   1   ROW     1   COL    13   RATE     750.000    
 BOUNDARY     14   LAYER   1   ROW     1   COL    14   RATE     750.000    
 BOUNDARY     15   LAYER   1   ROW     1   COL    15   RATE     750.000    
 BOUNDARY     16   LAYER   1   ROW     2   COL     1   RATE     750.000    
 BOUNDARY     17   LAYER   1   ROW     2   COL     2   RATE     750.000    
 BOUNDARY     18   LAYER   1   ROW     2   COL     3   RATE     750.000    
 BOUNDARY     19   LAYER   1   ROW     2   COL     4   RATE     750.000    
 BOUNDARY     20   LAYER   1   ROW     2   COL     5   RATE     750.000    
 BOUNDARY     21   LAYER   1   ROW     2   COL     6   RATE     750.000    
 BOUNDARY     22   LAYER   1   ROW     2   COL     7   RATE     750.000    
 BOUNDARY     23   LAYER   1   ROW     2   COL     8   RATE     750.000    
 BOUNDARY     24   LAYER   1   ROW     2   COL     9   RATE     750.000    
 BOUNDARY     25   LAYER   1   ROW     2   COL    10   RATE     750.000    
 BOUNDARY     26   LAYER   1   ROW     2   COL    11   RATE     750.000    
 BOUNDARY     27   LAYER   1   ROW     2   COL    12   RATE     750.000    
 BOUNDARY     28   LAYER   1   ROW     2   COL    13   RATE     750.000    
 BOUNDARY     29   LAYER   1   ROW     2   COL    14   RATE     750.000    
 BOUNDARY     30   LAYER   1   ROW     2   COL    15   RATE     750.000    
 BOUNDARY     31   LAYER   1   ROW     3   COL     1   RATE     750.000    
 BOUNDARY     32   LAYER   1   ROW     3   COL     2   RATE     750.000    
 BOUNDARY     33   LAYER   1   ROW     3   COL     3   RATE     750.000    
 BOUNDARY     34   LAYER   1   ROW     3   COL     4   RATE     750.000    
 BOUNDARY     35   LAYER   1   ROW     3   COL     5   RATE     750.000    
 BOUNDARY     36   LAYER   1   ROW     3   COL     6   RATE     750.000    
 BOUNDARY     37   LAYER   1   ROW     3   COL     7   RATE     750.000    
 BOUNDARY     38   LAYER   1   ROW     3   COL     8   RATE     750.000    
 BOUNDARY     39   LAYER   1   ROW     3   COL     9   RATE     750.000    
 BOUNDARY     40   LAYER   1   ROW     3   COL    10   RATE     750.000    
 BOUNDARY     41   LAYER   1   ROW     3   COL    11   RATE     750.000    
 BOUNDARY     42   LAYER   1   ROW     3   COL    12   RATE     750.000    
 BOUNDARY     43   LAYER   1   ROW     3   COL    13   RATE     750.000    
 BOUNDARY     44   LAYER   1   ROW     3   COL    14   RATE     750.000    
 BOUNDARY     45   LAYER   1   ROW     3   COL    15   RATE     750.000    
 BOUNDARY     46   LAYER   1   ROW     4   COL     1   RATE     750.000    
 BOUNDARY     47   LAYER   1   ROW     4   COL     2   RATE     750.000    
 BOUNDARY     48   LAYER   1   ROW     4   COL     3   RATE     750.000    
 BOUNDARY     49   LAYER   1   ROW     4   COL     4   RATE     750.000    
 BOUNDARY     50   LAYER   1   ROW     4   COL     5   RATE     750.000    
 BOUNDARY     51   LAYER   1   ROW     4   COL     6   RATE     750.000    
 BOUNDARY     52   LAYER   1   ROW     4   COL     7   RATE     750.000    
 BOUNDARY     53   LAYER   1   ROW     4   COL     8   RATE     750.000    
 BOUNDARY     54   LAYER   1   ROW     4   COL     9   RATE     750.000    
 BOUNDARY     55   LAYER   1   ROW     4   COL    10   RATE     750.000    
 BOUNDARY     56   LAYER   1   ROW     4   COL    11   RATE     750.000    
 BOUNDARY     57   LAYER   1   ROW     4   COL    12   RATE     750.000    
 BOUNDARY     58   LAYER   1   ROW     4   COL    13   RATE     750.000    
 BOUNDARY     59   LAYER   1   ROW     4   COL    14   RATE     750.000    
 BOUNDARY     60   LAYER   1   ROW     4   COL    15   RATE     750.000    
 BOUNDARY     61   LAYER   1   ROW     5   COL     1   RATE     750.000    
 BOUNDARY     62   LAYER   1   ROW     5   COL     2   RATE     750.000    
 BOUNDARY     63   LAYER   1   ROW     5   COL     3   RATE     750.000    
 BOUNDARY     64   LAYER   1   ROW     5   COL     4   RATE     750.000    
 BOUNDARY     65   LAYER   1   ROW     5   COL     5   RATE     750.000    
 BOUNDARY     66   LAYER   1   ROW     5   COL     6   RATE     750.000    
 BOUNDARY     67   LAYER   1   ROW     5   COL     7   RATE     750.000    
 BOUNDARY     68   LAYER   1   ROW     5   COL     8   RATE     750.000    
 BOUNDARY     69   LAYER   1   ROW     5   COL     9   RATE     750.000    
 BOUNDARY     70   LAYER   1   ROW     5   COL    10   RATE     750.000    
 BOUNDARY     71   LAYER   1   ROW     5   COL    11   RATE     750.000    
 BOUNDARY     72   LAYER   1   ROW     5   COL    12   RATE     750.000    
 BOUNDARY     73   LAYER   1   ROW     5   COL    13   RATE     750.000    
 BOUNDARY     74   LAYER   1   ROW     5   COL    14   RATE     750.000    
 BOUNDARY     75   LAYER   1   ROW     5   COL    15   RATE     750.000    
 BOUNDARY     76   LAYER   1   ROW     6   COL     1   RATE     750.000    
 BOUNDARY     77   LAYER   1   ROW     6   COL     2   RATE     750.000    
 BOUNDARY     78   LAYER   1   ROW     6   COL     3   RATE     750.000    
 BOUNDARY     79   LAYER   1   ROW     6   COL     4   RATE     750.000    
 BOUNDARY     80   LAYER   1   ROW     6   COL     5   RATE     750.000    
 BOUNDARY     81   LAYER   1   ROW     6   COL     6   RATE     750.000    
 BOUNDARY     82   LAYER   1   ROW     6   COL     7   RATE     750.000    
 BOUNDARY     83   LAYER   1   ROW     6   COL     8   RATE     750.000    
 BOUNDARY     84   LAYER   1   ROW     6   COL     9   RATE     750.000    
 BOUNDARY     85   LAYER   1   ROW     6   COL    10   RATE     750.000    
 BOUNDARY     86   LAYER   1   ROW     6   COL    11   RATE     750.000    
 BOUNDARY     87   LAYER   1   ROW     6   COL    12   RATE     750.000    
 BOUNDARY     88   LAYER   1   ROW     6   COL    13   RATE     750.000    
 BOUNDARY     89   LAYER   1   ROW     6   COL    14   RATE     750.000    
 BOUNDARY     90   LAYER   1   ROW     6   COL    15   RATE     750.000    
 BOUNDARY     91   LAYER   1   ROW     7   COL     1   RATE     750.000    
 BOUNDARY     92   LAYER   1   ROW     7   COL     2   RATE     750.000    
 BOUNDARY     93   LAYER   1   ROW     7   COL     3   RATE     750.000    
 BOUNDARY     94   LAYER   1   ROW     7   COL     4   RATE     750.000    
 BOUNDARY     95   LAYER   1   ROW     7   COL     5   RATE     750.000    
 BOUNDARY     96   LAYER   1   ROW     7   COL     6   RATE     750.000    
 BOUNDARY     97   LAYER   1   ROW     7   COL     7   RATE     750.000    
 BOUNDARY     98   LAYER   1   ROW     7   COL     8   RATE     750.000    
 BOUNDARY     99   LAYER   1   ROW     7   COL     9   RATE     750.000    
 BOUNDARY    100   LAYER   1   ROW     7   COL    10   RATE     750.000    
 BOUNDARY    101   LAYER   1   ROW     7   COL    11   RATE     750.000    
 BOUNDARY    102   LAYER   1   ROW     7   COL    12   RATE     750.000    
 BOUNDARY    103   LAYER   1   ROW     7   COL    13   RATE     750.000    
 BOUNDARY    104   LAYER   1   ROW     7   COL    14   RATE     750.000    
 BOUNDARY    105   LAYER   1   ROW     7   COL    15   RATE     750.000    
 BOUNDARY    106   LAYER   1   ROW     8   COL     1   RATE     750.000    
 BOUNDARY    107   LAYER   1   ROW     8   COL     2   RATE     750.000    
 BOUNDARY    108   LAYER   1   ROW     8   COL     3   RATE     750.000    
 BOUNDARY    109   LAYER   1   ROW     8   COL     4   RATE     750.000    
 BOUNDARY    110   LAYER   1   ROW     8   COL     5   RATE     750.000    
 BOUNDARY    111   LAYER   1   ROW     8   COL     6   RATE     750.000    
 BOUNDARY    112   LAYER   1   ROW     8   COL     7   RATE     750.000    
 BOUNDARY    113   LAYER   1   ROW     8   COL     8   RATE     750.000    
 BOUNDARY    114   LAYER   1   ROW     8   COL     9   RATE     750.000    
 BOUNDARY    115   LAYER   1   ROW     8   COL    10   RATE     750.000    
 BOUNDARY    116   LAYER   1   ROW     8   COL    11   RATE     750.000    
 BOUNDARY    117   LAYER   1   ROW     8   COL    12   RATE     750.000    
 BOUNDARY    118   LAYER   1   ROW     8   COL    13   RATE     750.000    
 BOUNDARY    119   LAYER   1   ROW     8   COL    14   RATE     750.000    
 BOUNDARY    120   LAYER   1   ROW     8   COL    15   RATE     750.000    
 BOUNDARY    121   LAYER   1   ROW     9   COL     1   RATE     750.000    
 BOUNDARY    122   LAYER   1   ROW     9   COL     2   RATE     750.000    
 BOUNDARY    123   LAYER   1   ROW     9   COL     3   RATE     750.000    
 BOUNDARY    124   LAYER   1   ROW     9   COL     4   RATE     750.000    
 BOUNDARY    125   LAYER   1   ROW     9   COL     5   RATE     750.000    
 BOUNDARY    126   LAYER   1   ROW     9   COL     6   RATE     750.000    
 BOUNDARY    127   LAYER   1   ROW     9   COL     7   RATE     750.000    
 BOUNDARY    128   LAYER   1   ROW     9   COL     8   RATE     750.000    
 BOUNDARY    129   LAYER   1   ROW     9   COL     9   RATE     750.000    
 BOUNDARY    130   LAYER   1   ROW     9   COL    10   RATE     750.000    
 BOUNDARY    131   LAYER   1   ROW     9   COL    11   RATE     750.000    
 BOUNDARY    132   LAYER   1   ROW     9   COL    12   RATE     750.000    
 BOUNDARY    133   LAYER   1   ROW     9   COL    13   RATE     750.000    
 BOUNDARY    134   LAYER   1   ROW     9   COL    14   RATE     750.000    
 BOUNDARY    135   LAYER   1   ROW     9   COL    15   RATE     750.000    
 BOUNDARY    136   LAYER   1   ROW    10   COL     1   RATE     750.000    
 BOUNDARY    137   LAYER   1   ROW    10   COL     2   RATE     750.000    
 BOUNDARY    138   LAYER   1   ROW    10   COL     3   RATE     750.000    
 BOUNDARY    139   LAYER   1   ROW    10   COL     4   RATE     750.000    
 BOUNDARY    140   LAYER   1   ROW    10   COL     5   RATE     750.000    
 BOUNDARY    141   LAYER   1   ROW    10   COL     6   RATE     750.000    
 BOUNDARY    142   LAYER   1   ROW    10   COL     7   RATE     750.000    
 BOUNDARY    143   LAYER   1   ROW    10   COL     8   RATE     750.000    
 BOUNDARY    144   LAYER   1   ROW    10   COL     9   RATE     750.000    
 BOUNDARY    145   LAYER   1   ROW    10   COL    10   RATE     750.000    
 BOUNDARY    146   LAYER   1   ROW    10   COL    11   RATE     750.000    
 BOUNDARY    147   LAYER   1   ROW    10   COL    12   RATE     750.000    
 BOUNDARY    148   LAYER   1   ROW    10   COL    13   RATE     750.000    
 BOUNDARY    149   LAYER   1   ROW    10   COL    14   RATE     750.000    
 BOUNDARY    150   LAYER   1   ROW    10   COL    15   RATE     750.000    
 UBDSV4 SAVING ET SEGS          ON UNIT   1016 AT TIME STEP      7, STRESS PERIOD      5

 ET SEGS            PERIOD  5   STEP  7
 BOUNDARY      1   LAYER   1   ROW     1   COL     1   RATE    -2.99730    
 BOUNDARY      2   LAYER   1   ROW     1   COL     2   RATE    -10.0804    
 BOUNDARY      3   LAYER   1   ROW     1   COL     3   RATE    -64.8110    
 BOUNDARY      4   LAYER   1   ROW     1   COL     4   RATE    -103.125    
 BOUNDARY      5   LAYER   1   ROW     1   COL     5   RATE    -103.125    
 BOUNDARY      6   LAYER   1   ROW     1   COL     6   RATE    -103.125    
 BOUNDARY      7   LAYER   1   ROW     1   COL     7   RATE    -103.125    
 BOUNDARY      8   LAYER   1   ROW     1   COL     8   RATE    -103.125    
 BOUNDARY      9   LAYER   1   ROW     1   COL     9   RATE    -103.125    
 BOUNDARY     10   LAYER   1   ROW     1   COL    10   RATE    -103.125    
 BOUNDARY     11   LAYER   1   ROW     1   COL    11   RATE    -103.125    
 BOUNDARY     12   LAYER   1   ROW     1   COL    12   RATE    -20.1276    
 BOUNDARY     13   LAYER   1   ROW     1   COL    13   RATE     0.00000    
 BOUNDARY     14   LAYER   1   ROW     1   COL    14   RATE     0.00000    
 BOUNDARY     15   LAYER   1   ROW     1   COL    15   RATE     0.00000    
 BOUNDARY     16   LAYER   1   ROW     2   COL     1   RATE     0.00000    
 BOUNDARY     17   LAYER   1   ROW     2   COL     2   RATE    -5.40475    
 BOUNDARY     18   LAYER   1   ROW     2   COL     3   RATE    -35.7380    
 BOUNDARY     19   LAYER   1   ROW     2   COL     4   RATE    -103.125    
 BOUNDARY     20   LAYER   1   ROW     2   COL     5   RATE    -103.125    
 BOUNDARY     21   LAYER   1   ROW     2   COL     6   RATE    -103.125    
 BOUNDARY     22   LAYER   1   ROW     2   COL     7   RATE    -103.125    
 BOUNDARY     23   LAYER   1   ROW     2   COL     8   RATE    -103.125    
 BOUNDARY     24   LAYER   1   ROW     2   COL     9   RATE    -103.125    
 BOUNDARY     25   LAYER   1   ROW     2   COL    10   RATE    -103.125    
 BOUNDARY     26   LAYER   1   ROW     2   COL    11   RATE    -103.125    
 BOUNDARY     27   LAYER   1   ROW     2   COL    12   RATE    -21.9259    
 BOUNDARY     28   LAYER   1   ROW     2   COL    13   RATE   -0.931448    
 BOUNDARY     29   LAYER   1   ROW     2   COL    14   RATE     0.00000    
 BOUNDARY     30   LAYER   1   ROW     2   COL    15   RATE     0.00000    
 BOUNDARY     31   LAYER   1   ROW     3   COL     1   RATE     0.00000    
 BOUNDARY     32   LAYER   1   ROW     3   COL     2   RATE     0.00000    
 BOUNDARY     33   LAYER   1   ROW     3   COL     3   RATE    -25.6850    
 BOUNDARY     34   LAYER   1   ROW     3   COL     4   RATE    -103.125    
 BOUNDARY     35   LAYER   1   ROW     3   COL     5   RATE    -103.125    
 BOUNDARY     36   LAYER   1   ROW     3   COL     6   RATE    -103.125    
 BOUNDARY     37   LAYER   1   ROW     3   COL     7   RATE    -103.125    
 BOUNDARY     38   LAYER   1   ROW     3   COL     8   RATE    -103.125    
 BOUNDARY     39   LAYER   1   ROW     3   COL     9   RATE    -103.125    
 BOUNDARY     40   LAYER   1   ROW     3   COL    10   RATE    -103.125    
 BOUNDARY     41   LAYER   1   ROW     3   COL    11   RATE    -103.125    
 BOUNDARY     42   LAYER   1   ROW     3   COL    12   RATE    -24.9569    
 BOUNDARY     43   LAYER   1   ROW     3   COL    13   RATE    -2.78263    
 BOUNDARY     44   LAYER   1   ROW     3   COL    14   RATE     0.00000    
 BOUNDARY     45   LAYER   1   ROW     3   COL    15   RATE     0.00000    
 BOUNDARY     46   LAYER   1   ROW     4   COL     1   RATE     0.00000    
 BOUNDARY     47   LAYER   1   ROW     4   COL     2   RATE    -3.84860    
 BOUNDARY     48   LAYER   1   ROW     4   COL     3   RATE    -29.7056    
 BOUNDARY     49   LAYER   1   ROW     4   COL     4   RATE    -103.125    
 BOUNDARY     50   LAYER   1   ROW     4   COL     5   RATE    -103.125    
 BOUNDARY     51   LAYER   1   ROW     4   COL     6   RATE    -103.125    
 BOUNDARY     52   LAYER   1   ROW     4   COL     7   RATE    -103.125    
 BOUNDARY     53   LAYER   1   ROW     4   COL     8   RATE    -103.125    
 BOUNDARY     54   LAYER   1   ROW     4   COL     9   RATE    -103.125    
 BOUNDARY     55   LAYER   1   ROW     4   COL    10   RATE    -103.125    
 BOUNDARY     56   LAYER   1   ROW     4   COL    11   RATE    -103.125    
 BOUNDARY     57   LAYER   1   ROW     4   COL    12   RATE    -27.8330    
 BOUNDARY     58   LAYER   1   ROW     4   COL    13   RATE    -4.27955    
 BOUNDARY     59   LAYER   1   ROW     4   COL    14   RATE     0.00000    
 BOUNDARY     60   LAYER   1   ROW     4   COL    15   RATE     0.00000    
 BOUNDARY     61   LAYER   1   ROW     5   COL     1   RATE     0.00000    
 BOUNDARY     62   LAYER   1   ROW     5   COL     2   RATE    -6.92611    
 BOUNDARY     63   LAYER   1   ROW     5   COL     3   RATE    -45.9400    
 BOUNDARY     64   LAYER   1   ROW     5   COL     4   RATE    -103.125    
 BOUNDARY     65   LAYER   1   ROW     5   COL     5   RATE    -103.125    
 BOUNDARY     66   LAYER   1   ROW     5   COL     6   RATE    -103.125    
 BOUNDARY     67   LAYER   1   ROW     5   COL     7   RATE    -103.125    
 BOUNDARY     68   LAYER   1   ROW     5   COL     8   RATE    -103.125    
 BOUNDARY     69   LAYER   1   ROW     5   COL     9   RATE    -103.125    
 BOUNDARY     70   LAYER   1   ROW     5   COL    10   RATE    -103.125    
 BOUNDARY     71   LAYER   1   ROW     5   COL    11   RATE    -103.125    
 BOUNDARY     72   LAYER   1   ROW     5   COL    12   RATE    -29.8082    
 BOUNDARY     73   LAYER   1   ROW     5   COL    13   RATE    -5.19045    
 BOUNDARY     74   LAYER   1   ROW     5   COL    14   RATE     0.00000    
 BOUNDARY     75   LAYER   1   ROW     5   COL    15   RATE     0.00000    
 BOUNDARY     76   LAYER   1   ROW     6   COL     1   RATE     0.00000    
 BOUNDARY     77   LAYER   1   ROW     6   COL     2   RATE    -5.43728    
 BOUNDARY     78   LAYER   1   ROW     6   COL     3   RATE    -49.8858    
 BOUNDARY     79   LAYER   1   ROW     6   COL     4   RATE    -103.125    
 BOUNDARY     80   LAYER   1   ROW     6   COL     5   RATE    -103.125    
 BOUNDARY     81   LAYER   1   ROW     6   COL     6   RATE    -103.125    
 BOUNDARY     82   LAYER   1   ROW     6   COL     7   RATE    -103.125    
 BOUNDARY     83   LAYER   1   ROW     6   COL     8   RATE    -103.125    
 BOUNDARY     84   LAYER   1   ROW     6   COL     9   RATE    -103.125    
 BOUNDARY     85   LAYER   1   ROW     6   COL    10   RATE    -103.125    
 BOUNDARY     86   LAYER   1   ROW     6   COL    11   RATE    -103.125    
 BOUNDARY     87   LAYER   1   ROW     6   COL    12   RATE    -30.4718    
 BOUNDARY     88   LAYER   1   ROW     6   COL    13   RATE    -5.14003    
 BOUNDARY     89   LAYER   1   ROW     6   COL    14   RATE     0.00000    
 BOUNDARY     90   LAYER   1   ROW     6   COL    15   RATE     0.00000    
 BOUNDARY     91   LAYER   1   ROW     7   COL     1   RATE     0.00000    
 BOUNDARY     92   LAYER   1   ROW     7   COL     2   RATE    -1.79004    
 BOUNDARY     93   LAYER   1   ROW     7   COL     3   RATE    -57.0216    
 BOUNDARY     94   LAYER   1   ROW     7   COL     4   RATE    -103.125    
 BOUNDARY     95   LAYER   1   ROW     7   COL     5   RATE    -103.125    
 BOUNDARY     96   LAYER   1   ROW     7   COL     6   RATE    -103.125    
 BOUNDARY     97   LAYER   1   ROW     7   COL     7   RATE    -103.125    
 BOUNDARY     98   LAYER   1   ROW     7   COL     8   RATE    -103.125    
 BOUNDARY     99   LAYER   1   ROW     7   COL     9   RATE    -103.125    
 BOUNDARY    100   LAYER   1   ROW     7   COL    10   RATE    -103.125    
 BOUNDARY    101   LAYER   1   ROW     7   COL    11   RATE    -103.125    
 BOUNDARY    102   LAYER   1   ROW     7   COL    12   RATE    -30.3228    
 BOUNDARY    103   LAYER   1   ROW     7   COL    13   RATE    -4.40083    
 BOUNDARY    104   LAYER   1   ROW     7   COL    14   RATE     0.00000    
 BOUNDARY    105   LAYER   1   ROW     7   COL    15   RATE     0.00000    
 BOUNDARY    106   LAYER   1   ROW     8   COL     1   RATE     0.00000    
 BOUNDARY    107   LAYER   1   ROW     8   COL     2   RATE    -14.2880    
 BOUNDARY    108   LAYER   1   ROW     8   COL     3   RATE    -103.125    
 BOUNDARY    109   LAYER   1   ROW     8   COL     4   RATE    -103.125    
 BOUNDARY    110   LAYER   1   ROW     8   COL     5   RATE    -103.125    
 BOUNDARY    111   LAYER   1   ROW     8   COL     6   RATE    -103.125    
 BOUNDARY    112   LAYER   1   ROW     8   COL     7   RATE    -103.125    
 BOUNDARY    113   LAYER   1   ROW     8   COL     8   RATE    -103.125    
 BOUNDARY    114   LAYER   1   ROW     8   COL     9   RATE    -103.125    
 BOUNDARY    115   LAYER   1   ROW     8   COL    10   RATE    -103.125    
 BOUNDARY    116   LAYER   1   ROW     8   COL    11   RATE    -103.125    
 BOUNDARY    117   LAYER   1   ROW     8   COL    12   RATE    -30.7554    
 BOUNDARY    118   LAYER   1   ROW     8   COL    13   RATE    -4.43467    
 BOUNDARY    119   LAYER   1   ROW     8   COL    14   RATE     0.00000    
 BOUNDARY    120   LAYER   1   ROW     8   COL    15   RATE     0.00000    
 BOUNDARY    121   LAYER   1   ROW     9   COL     1   RATE    -22.1319    
 BOUNDARY    122   LAYER   1   ROW     9   COL     2   RATE    -76.9246    
 BOUNDARY    123   LAYER   1   ROW     9   COL     3   RATE    -103.125    
 BOUNDARY    124   LAYER   1   ROW     9   COL     4   RATE    -103.125    
 BOUNDARY    125   LAYER   1   ROW     9   COL     5   RATE    -103.125    
 BOUNDARY    126   LAYER   1   ROW     9   COL     6   RATE    -103.125    
 BOUNDARY    127   LAYER   1   ROW     9   COL     7   RATE    -103.125    
 BOUNDARY    128   LAYER   1   ROW     9   COL     8   RATE    -103.125    
 BOUNDARY    129   LAYER   1   ROW     9   COL     9   RATE    -103.125    
 BOUNDARY    130   LAYER   1   ROW     9   COL    10   RATE    -103.125    
 BOUNDARY    131   LAYER   1   ROW     9   COL    11   RATE    -103.125    
 BOUNDARY    132   LAYER   1   ROW     9   COL    12   RATE    -36.1000    
 BOUNDARY    133   LAYER   1   ROW     9   COL    13   RATE    -5.32192    
 BOUNDARY    134   LAYER   1   ROW     9   COL    14   RATE     0.00000    
 BOUNDARY    135   LAYER   1   ROW     9   COL    15   RATE     0.00000    
 BOUNDARY    136   LAYER   1   ROW    10   COL     1   RATE    -85.3571    
 BOUNDARY    137   LAYER   1   ROW    10   COL     2   RATE    -103.125    
 BOUNDARY    138   LAYER   1   ROW    10   COL     3   RATE    -103.125    
 BOUNDARY    139   LAYER   1   ROW    10   COL     4   RATE    -103.125    
 BOUNDARY    140   LAYER   1   ROW    10   COL     5   RATE    -103.125    
 BOUNDARY    141   LAYER   1   ROW    10   COL     6   RATE    -103.125    
 BOUNDARY    142   LAYER   1   ROW    10   COL     7   RATE    -103.125    
 BOUNDARY    143   LAYER   1   ROW    10   COL     8   RATE    -103.125    
 BOUNDARY    144   LAYER   1   ROW    10   COL     9   RATE    -103.125    
 BOUNDARY    145   LAYER   1   ROW    10   COL    10   RATE    -103.125    
 BOUNDARY    146   LAYER   1   ROW    10   COL    11   RATE    -103.125    
 BOUNDARY    147   LAYER   1   ROW    10   COL    12   RATE    -40.4607    
 BOUNDARY    148   LAYER   1   ROW    10   COL    13   RATE    -5.88708    
 BOUNDARY    149   LAYER   1   ROW    10   COL    14   RATE     0.00000    
 BOUNDARY    150   LAYER   1   ROW    10   COL    15   RATE     0.00000    

 HEAD WILL BE SAVED ON UNIT 1017 AT END OF TIME STEP    7, STRESS PERIOD    5
WEL   no.    1 value from time series:   0.0000     for time:  98.00     to  99.00    
WEL   no.    2 value from time series:   0.0000     for time:  98.00     to  99.00    
RIV   no.    1 value from time series:   101.00     for time:  98.00     to  99.00    
RIV   no.    2 value from time series:   101.00     for time:  98.00     to  99.00    
RIV   no.    3 value from time series:   111.50     for time:  98.00     to  99.00    
RIV   no.    4 value from time series:   111.50     for time:  98.00     to  99.00    
RIV   no.    5 value from time series:   115.10     for time:  98.00     to  99.00    
RIV   no.    6 value from time series:   115.10     for time:  98.00     to  99.00    
RIV   no.    7 value from time series:   104.00     for time:  98.00     to  99.00    
RIV   no.    8 value from time series:   104.00     for time:  98.00     to  99.00    
RIV   no.    9 value from time series:   113.50     for time:  98.00     to  99.00    
RIV   no.   10 value from time series:   113.50     for time:  98.00     to  99.00    
WEL   no.    1 value from time series:   0.0000     for time:  98.00     to  99.00    
WEL   no.    2 value from time series:   0.0000     for time:  98.00     to  99.00    
RIV   no.    1 value from time series:   101.00     for time:  98.00     to  99.00    
RIV   no.    2 value from time series:   101.00     for time:  98.00     to  99.00    
RIV   no.    3 value from time series:   111.50     for time:  98.00     to  99.00    
RIV   no.    4 value from time series:   111.50     for time:  98.00     to  99.00    
RIV   no.    5 value from time series:   115.10     for time:  98.00     to  99.00    
RIV   no.    6 value from time series:   115.10     for time:  98.00     to  99.00    
RIV   no.    7 value from time series:   104.00     for time:  98.00     to  99.00    
RIV   no.    8 value from time series:   104.00     for time:  98.00     to  99.00    
RIV   no.    9 value from time series:   113.50     for time:  98.00     to  99.00    
RIV   no.   10 value from time series:   113.50     for time:  98.00     to  99.00    

 OUTPUT CONTROL FOR STRESS PERIOD    5   TIME STEP    8
    SAVE BUDGET
    SAVE HEAD
    SAVE HEAD FOR ALL LAYERS
 UBDSV1 SAVING          STORAGE ON UNIT   1016 AT TIME STEP      8, STRESS PERIOD      5
 UBDSV1 SAVING FLOW RIGHT FACE  ON UNIT   1016 AT TIME STEP      8, STRESS PERIOD      5
 UBDSV1 SAVING FLOW FRONT FACE  ON UNIT   1016 AT TIME STEP      8, STRESS PERIOD      5
 UBDSV1 SAVING FLOW LOWER FACE  ON UNIT   1016 AT TIME STEP      8, STRESS PERIOD      5
 UBDSV4 SAVING WELLS NEAR RIVER ON UNIT   1016 AT TIME STEP      8, STRESS PERIOD      5

 WELLS NEAR RIVER   PERIOD  5   STEP  8
 BOUNDARY      1   LAYER   2   ROW     8   COL     4   RATE     0.00000      WELL_2
 BOUNDARY      2   LAYER   2   ROW     3   COL     4   RATE     0.00000      WELL_1
 UBDSV4 SAVING RIVER            ON UNIT   1016 AT TIME STEP      8, STRESS PERIOD      5

 RIVER              PERIOD  5   STEP  8
 BOUNDARY      1   LAYER   1   ROW     1   COL    15   RATE    -4896.60    
 BOUNDARY      2   LAYER   1   ROW     2   COL    15   RATE    -6021.18      RIV2
 BOUNDARY      3   LAYER   1   ROW     3   COL    15   RATE    -2287.34      RIV3
 BOUNDARY      4   LAYER   1   ROW     4   COL    15   RATE    -3750.89    
 BOUNDARY      5   LAYER   1   ROW     5   COL    15   RATE    -2388.85    
 BOUNDARY      6   LAYER   1   ROW     6   COL    15   RATE    -1736.56    
 BOUNDARY      7   LAYER   1   ROW     7   COL    15   RATE    -6218.97      RIVX
 BOUNDARY      8   LAYER   1   ROW     8   COL    15   RATE    -6067.21      RIVX
 BOUNDARY      9   LAYER   1   ROW     9   COL    15   RATE    -2276.92      RIVX
 BOUNDARY     10   LAYER   1   ROW    10   COL    15   RATE    -3181.92    

 GHB LAKES          PERIOD  5   STEP  8
 BOUNDARY      1   LAYER   1   ROW     3   COL     1   RATE    -14753.4    
 BOUNDARY      2   LAYER   1   ROW     7   COL     1   RATE    -2067.99      GHB2_UPPER
 BOUNDARY      3   LAYER   1   ROW     7   COL     1   RATE    -13316.4      GHB2_LOWER
 UBDSV4 SAVING RECHARGE         ON UNIT   1016 AT TIME STEP      8, STRESS PERIOD      5

 RECHARGE           PERIOD  5   STEP  8
 BOUNDARY      1   LAYER   1   ROW     1   COL     1   RATE     753.333    
 BOUNDARY      2   LAYER   1   ROW     1   COL     2   RATE     753.333    
 BOUNDARY      3   LAYER   1   ROW     1   COL     3   RATE     753.333    
 BOUNDARY      4   LAYER   1   ROW     1   COL     4   RATE     753.333    
 BOUNDARY      5   LAYER   1   ROW     1   COL     5   RATE     753.333    
 BOUNDARY      6   LAYER   1   ROW     1   COL     6   RATE     753.333    
 BOUNDARY      7   LAYER   1   ROW     1   COL     7   RATE     753.333    
 BOUNDARY      8   LAYER   1   ROW     1   COL     8   RATE     753.333    
 BOUNDARY      9   LAYER   1   ROW     1   COL     9   RATE     753.333    
 BOUNDARY     10   LAYER   1   ROW     1   COL    10   RATE     753.333    
 BOUNDARY     11   LAYER   1   ROW     1   COL    11   RATE     753.333    
 BOUNDARY     12   LAYER   1   ROW     1   COL    12   RATE     753.333    
 BOUNDARY     13   LAYER   1   ROW     1   COL    13   RATE     753.333    
 BOUNDARY     14   LAYER   1   ROW     1   COL    14   RATE     753.333    
 BOUNDARY     15   LAYER   1   ROW     1   COL    15   RATE     753.333    
 BOUNDARY     16   LAYER   1   ROW     2   COL     1   RATE     753.333    
 BOUNDARY     17   LAYER   1   ROW     2   COL     2   RATE     753.333    
 BOUNDARY     18   LAYER   1   ROW     2   COL     3   RATE     753.333    
 BOUNDARY     19   LAYER   1   ROW     2   COL     4   RATE     753.333    
 BOUNDARY     20   LAYER   1   ROW     2   COL     5   RATE     753.333    
 BOUNDARY     21   LAYER   1   ROW     2   COL     6   RATE     753.333    
 BOUNDARY     22   LAYER   1   ROW     2   COL     7   RATE     753.333    
 BOUNDARY     23   LAYER   1   ROW     2   COL     8   RATE     753.333    
 BOUNDARY     24   LAYER   1   ROW     2   COL     9   RATE     753.333    
 BOUNDARY     25   LAYER   1   ROW     2   COL    10   RATE     753.333    
 BOUNDARY     26   LAYER   1   ROW     2   COL    11   RATE     753.333    
 BOUNDARY     27   LAYER   1   ROW     2   COL    12   RATE     753.333    
 BOUNDARY     28   LAYER   1   ROW     2   COL    13   RATE     753.333    
 BOUNDARY     29   LAYER   1   ROW     2   COL    14   RATE     753.333    
 BOUNDARY     30   LAYER   1   ROW     2   COL    15   RATE     753.333    
 BOUNDARY     31   LAYER   1   ROW     3   COL     1   RATE     753.333    
 BOUNDARY     32   LAYER   1   ROW     3   COL     2   RATE     753.333    
 BOUNDARY     33   LAYER   1   ROW     3   COL     3   RATE     753.333    
 BOUNDARY     34   LAYER   1   ROW     3   COL     4   RATE     753.333    
 BOUNDARY     35   LAYER   1   ROW     3   COL     5   RATE     753.333    
 BOUNDARY     36   LAYER   1   ROW     3   COL     6   RATE     753.333    
 BOUNDARY     37   LAYER   1   ROW     3   COL     7   RATE     753.333    
 BOUNDARY     38   LAYER   1   ROW     3   COL     8   RATE     753.333    
 BOUNDARY     39   LAYER   1   ROW     3   COL     9   RATE     753.333    
 BOUNDARY     40   LAYER   1   ROW     3   COL    10   RATE     753.333    
 BOUNDARY     41   LAYER   1   ROW     3   COL    11   RATE     753.333    
 BOUNDARY     42   LAYER   1   ROW     3   COL    12   RATE     753.333    
 BOUNDARY     43   LAYER   1   ROW     3   COL    13   RATE     753.333    
 BOUNDARY     44   LAYER   1   ROW     3   COL    14   RATE     753.333    
 BOUNDARY     45   LAYER   1   ROW     3   COL    15   RATE     753.333    
 BOUNDARY     46   LAYER   1   ROW     4   COL     1   RATE     753.333    
 BOUNDARY     47   LAYER   1   ROW     4   COL     2   RATE     753.333    
 BOUNDARY     48   LAYER   1   ROW     4   COL     3   RATE     753.333    
 BOUNDARY     49   LAYER   1   ROW     4   COL     4   RATE     753.333    
 BOUNDARY     50   LAYER   1   ROW     4   COL     5   RATE     753.333    
 BOUNDARY     51   LAYER   1   ROW     4   COL     6   RATE     753.333    
 BOUNDARY     52   LAYER   1   ROW     4   COL     7   RATE     753.333    
 BOUNDARY     53   LAYER   1   ROW     4   COL     8   RATE     753.333    
 BOUNDARY     54   LAYER   1   ROW     4   COL     9   RATE     753.333    
 BOUNDARY     55   LAYER   1   ROW     4   COL    10   RATE     753.333    
 BOUNDARY     56   LAYER   1   ROW     4   COL    11   RATE     753.333    
 BOUNDARY     57   LAYER   1   ROW     4   COL    12   RATE     753.333    
 BOUNDARY     58   LAYER   1   ROW     4   COL    13   RATE     753.333    
 BOUNDARY     59   LAYER   1   ROW     4   COL    14   RATE     753.333    
 BOUNDARY     60   LAYER   1   ROW     4   COL    15   RATE     753.333    
 BOUNDARY     61   LAYER   1   ROW     5   COL     1   RATE     753.333    
 BOUNDARY     62   LAYER   1   ROW     5   COL     2   RATE     753.333    
 BOUNDARY     63   LAYER   1   ROW     5   COL     3   RATE     753.333    
 BOUNDARY     64   LAYER   1   ROW     5   COL     4   RATE     753.333    
 BOUNDARY     65   LAYER   1   ROW     5   COL     5   RATE     753.333    
 BOUNDARY     66   LAYER   1   ROW     5   COL     6   RATE     753.333    
 BOUNDARY     67   LAYER   1   ROW     5   COL     7   RATE     753.333    
 BOUNDARY     68   LAYER   1   ROW     5   COL     8   RATE     753.333    
 BOUNDARY     69   LAYER   1   ROW     5   COL     9   RATE     753.333    
 BOUNDARY     70   LAYER   1   ROW     5   COL    10   RATE     753.333    
 BOUNDARY     71   LAYER   1   ROW     5   COL    11   RATE     753.333    
 BOUNDARY     72   LAYER   1   ROW     5   COL    12   RATE     753.333    
 BOUNDARY     73   LAYER   1   ROW     5   COL    13   RATE     753.333    
 BOUNDARY     74   LAYER   1   ROW     5   COL    14   RATE     753.333    
 BOUNDARY     75   LAYER   1   ROW     5   COL    15   RATE     753.333    
 BOUNDARY     76   LAYER   1   ROW     6   COL     1   RATE     753.333    
 BOUNDARY     77   LAYER   1   ROW     6   COL     2   RATE     753.333    
 BOUNDARY     78   LAYER   1   ROW     6   COL     3   RATE     753.333    
 BOUNDARY     79   LAYER   1   ROW     6   COL     4   RATE     753.333    
 BOUNDARY     80   LAYER   1   ROW     6   COL     5   RATE     753.333    
 BOUNDARY     81   LAYER   1   ROW     6   COL     6   RATE     753.333    
 BOUNDARY     82   LAYER   1   ROW     6   COL     7   RATE     753.333    
 BOUNDARY     83   LAYER   1   ROW     6   COL     8   RATE     753.333    
 BOUNDARY     84   LAYER   1   ROW     6   COL     9   RATE     753.333    
 BOUNDARY     85   LAYER   1   ROW     6   COL    10   RATE     753.333    
 BOUNDARY     86   LAYER   1   ROW     6   COL    11   RATE     753.333    
 BOUNDARY     87   LAYER   1   ROW     6   COL    12   RATE     753.333    
 BOUNDARY     88   LAYER   1   ROW     6   COL    13   RATE     753.333    
 BOUNDARY     89   LAYER   1   ROW     6   COL    14   RATE     753.333    
 BOUNDARY     90   LAYER   1   ROW     6   COL    15   RATE     753.333    
 BOUNDARY     91   LAYER   1   ROW     7   COL     1   RATE     753.333    
 BOUNDARY     92   LAYER   1   ROW     7   COL     2   RATE     753.333    
 BOUNDARY     93   LAYER   1   ROW     7   COL     3   RATE     753.333    
 BOUNDARY     94   LAYER   1   ROW     7   COL     4   RATE     753.333    
 BOUNDARY     95   LAYER   1   ROW     7   COL     5   RATE     753.333    
 BOUNDARY     96   LAYER   1   ROW     7   COL     6   RATE     753.333    
 BOUNDARY     97   LAYER   1   ROW     7   COL     7   RATE     753.333    
 BOUNDARY     98   LAYER   1   ROW     7   COL     8   RATE     753.333    
 BOUNDARY     99   LAYER   1   ROW     7   COL     9   RATE     753.333    
 BOUNDARY    100   LAYER   1   ROW     7   COL    10   RATE     753.333    
 BOUNDARY    101   LAYER   1   ROW     7   COL    11   RATE     753.333    
 BOUNDARY    102   LAYER   1   ROW     7   COL    12   RATE     753.333    
 BOUNDARY    103   LAYER   1   ROW     7   COL    13   RATE     753.333    
 BOUNDARY    104   LAYER   1   ROW     7   COL    14   RATE     753.333    
 BOUNDARY    105   LAYER   1   ROW     7   COL    15   RATE     753.333    
 BOUNDARY    106   LAYER   1   ROW     8   COL     1   RATE     753.333    
 BOUNDARY    107   LAYER   1   ROW     8   COL     2   RATE     753.333    
 BOUNDARY    108   LAYER   1   ROW     8   COL     3   RATE     753.333    
 BOUNDARY    109   LAYER   1   ROW     8   COL     4   RATE     753.333    
 BOUNDARY    110   LAYER   1   ROW     8   COL     5   RATE     753.333    
 BOUNDARY    111   LAYER   1   ROW     8   COL     6   RATE     753.333    
 BOUNDARY    112   LAYER   1   ROW     8   COL     7   RATE     753.333    
 BOUNDARY    113   LAYER   1   ROW     8   COL     8   RATE     753.333    
 BOUNDARY    114   LAYER   1   ROW     8   COL     9   RATE     753.333    
 BOUNDARY    115   LAYER   1   ROW     8   COL    10   RATE     753.333    
 BOUNDARY    116   LAYER   1   ROW     8   COL    11   RATE     753.333    
 BOUNDARY    117   LAYER   1   ROW     8   COL    12   RATE     753.333    
 BOUNDARY    118   LAYER   1   ROW     8   COL    13   RATE     753.333    
 BOUNDARY    119   LAYER   1   ROW     8   COL    14   RATE     753.333    
 BOUNDARY    120   LAYER   1   ROW     8   COL    15   RATE     753.333    
 BOUNDARY    121   LAYER   1   ROW     9   COL     1   RATE     753.333    
 BOUNDARY    122   LAYER   1   ROW     9   COL     2   RATE     753.333    
 BOUNDARY    123   LAYER   1   ROW     9   COL     3   RATE     753.333    
 BOUNDARY    124   LAYER   1   ROW     9   COL     4   RATE     753.333    
 BOUNDARY    125   LAYER   1   ROW     9   COL     5   RATE     753.333    
 BOUNDARY    126   LAYER   1   ROW     9   COL     6   RATE     753.333    
 BOUNDARY    127   LAYER   1   ROW     9   COL     7   RATE     753.333    
 BOUNDARY    128   LAYER   1   ROW     9   COL     8   RATE     753.333    
 BOUNDARY    129   LAYER   1   ROW     9   COL     9   RATE     753.333    
 BOUNDARY    130   LAYER   1   ROW     9   COL    10   RATE     753.333    
 BOUNDARY    131   LAYER   1   ROW     9   COL    11   RATE     753.333    
 BOUNDARY    132   LAYER   1   ROW     9   COL    12   RATE     753.333    
 BOUNDARY    133   LAYER   1   ROW     9   COL    13   RATE     753.333    
 BOUNDARY    134   LAYER   1   ROW     9   COL    14   RATE     753.333    
 BOUNDARY    135   LAYER   1   ROW     9   COL    15   RATE     753.333    
 BOUNDARY    136   LAYER   1   ROW    10   COL     1   RATE     753.333    
 BOUNDARY    137   LAYER   1   ROW    10   COL     2   RATE     753.333    
 BOUNDARY    138   LAYER   1   ROW    10   COL     3   RATE     753.333    
 BOUNDARY    139   LAYER   1   ROW    10   COL     4   RATE     753.333    
 BOUNDARY    140   LAYER   1   ROW    10   COL     5   RATE     753.333    
 BOUNDARY    141   LAYER   1   ROW    10   COL     6   RATE     753.333    
 BOUNDARY    142   LAYER   1   ROW    10   COL     7   RATE     753.333    
 BOUNDARY    143   LAYER   1   ROW    10   COL     8   RATE     753.333    
 BOUNDARY    144   LAYER   1   ROW    10   COL     9   RATE     753.333    
 BOUNDARY    145   LAYER   1   ROW    10   COL    10   RATE     753.333    
 BOUNDARY    146   LAYER   1   ROW    10   COL    11   RATE     753.333    
 BOUNDARY    147   LAYER   1   ROW    10   COL    12   RATE     753.333    
 BOUNDARY    148   LAYER   1   ROW    10   COL    13   RATE     753.333    
 BOUNDARY    149   LAYER   1   ROW    10   COL    14   RATE     753.333    
 BOUNDARY    150   LAYER   1   ROW    10   COL    15   RATE     753.333    
 UBDSV4 SAVING ET SEGS          ON UNIT   1016 AT TIME STEP      8, STRESS PERIOD      5

 ET SEGS            PERIOD  5   STEP  8
 BOUNDARY      1   LAYER   1   ROW     1   COL     1   RATE    -3.02932    
 BOUNDARY      2   LAYER   1   ROW     1   COL     2   RATE    -10.1412    
 BOUNDARY      3   LAYER   1   ROW     1   COL     3   RATE    -65.4189    
 BOUNDARY      4   LAYER   1   ROW     1   COL     4   RATE    -103.542    
 BOUNDARY      5   LAYER   1   ROW     1   COL     5   RATE    -103.542    
 BOUNDARY      6   LAYER   1   ROW     1   COL     6   RATE    -103.542    
 BOUNDARY      7   LAYER   1   ROW     1   COL     7   RATE    -103.542    
 BOUNDARY      8   LAYER   1   ROW     1   COL     8   RATE    -103.542    
 BOUNDARY      9   LAYER   1   ROW     1   COL     9   RATE    -103.542    
 BOUNDARY     10   LAYER   1   ROW     1   COL    10   RATE    -103.542    
 BOUNDARY     11   LAYER   1   ROW     1   COL    11   RATE    -103.542    
 BOUNDARY     12   LAYER   1   ROW     1   COL    12   RATE    -20.2774    
 BOUNDARY     13   LAYER   1   ROW     1   COL    13   RATE     0.00000    
 BOUNDARY     14   LAYER   1   ROW     1   COL    14   RATE     0.00000    
 BOUNDARY     15   LAYER   1   ROW     1   COL    15   RATE     0.00000    
 BOUNDARY     16   LAYER   1   ROW     2   COL     1   RATE     0.00000    
 BOUNDARY     17   LAYER   1   ROW     2   COL     2   RATE    -5.44647    
 BOUNDARY     18   LAYER   1   ROW     2   COL     3   RATE    -36.2365    
 BOUNDARY     19   LAYER   1   ROW     2   COL     4   RATE    -103.542    
 BOUNDARY     20   LAYER   1   ROW     2   COL     5   RATE    -103.542    
 BOUNDARY     21   LAYER   1   ROW     2   COL     6   RATE    -103.542    
 BOUNDARY     22   LAYER   1   ROW     2   COL     7   RATE    -103.542    
 BOUNDARY     23   LAYER   1   ROW     2   COL     8   RATE    -103.542    
 BOUNDARY     24   LAYER   1   ROW     2   COL     9   RATE    -103.542    
 BOUNDARY     25   LAYER   1   ROW     2   COL    10   RATE    -103.542    
 BOUNDARY     26   LAYER   1   ROW     2   COL    11   RATE    -103.542    
 BOUNDARY     27   LAYER   1   ROW     2   COL    12   RATE    -22.0830    
 BOUNDARY     28   LAYER   1   ROW     2   COL    13   RATE   -0.955333    
 BOUNDARY     29   LAYER   1   ROW     2   COL    14   RATE     0.00000    
 BOUNDARY     30   LAYER   1   ROW     2   COL    15   RATE     0.00000    
 BOUNDARY     31   LAYER   1   ROW     3   COL     1   RATE     0.00000    
 BOUNDARY     32   LAYER   1   ROW     3   COL     2   RATE     0.00000    
 BOUNDARY     33   LAYER   1   ROW     3   COL     3   RATE    -25.8558    
 BOUNDARY     34   LAYER   1   ROW     3   COL     4   RATE    -103.542    
 BOUNDARY     35   LAYER   1   ROW     3   COL     5   RATE    -103.542    
 BOUNDARY     36   LAYER   1   ROW     3   COL     6   RATE    -103.542    
 BOUNDARY     37   LAYER   1   ROW     3   COL     7   RATE    -103.542    
 BOUNDARY     38   LAYER   1   ROW     3   COL     8   RATE    -103.542    
 BOUNDARY     39   LAYER   1   ROW     3   COL     9   RATE    -103.542    
 BOUNDARY     40   LAYER   1   ROW     3   COL    10   RATE    -103.542    
 BOUNDARY     41   LAYER   1   ROW     3   COL    11   RATE    -103.542    
 BOUNDARY     42   LAYER   1   ROW     3   COL    12   RATE    -25.1262    
 BOUNDARY     43   LAYER   1   ROW     3   COL    13   RATE    -2.81403    
 BOUNDARY     44   LAYER   1   ROW     3   COL    14   RATE     0.00000    
 BOUNDARY     45   LAYER   1   ROW     3   COL    15   RATE     0.00000    
 BOUNDARY     46   LAYER   1   ROW     4   COL     1   RATE     0.00000    
 BOUNDARY     47   LAYER   1   ROW     4   COL     2   RATE    -3.88388    
 BOUNDARY     48   LAYER   1   ROW     4   COL     3   RATE    -29.8925    
 BOUNDARY     49   LAYER   1   ROW     4   COL     4   RATE    -103.542    
 BOUNDARY     50   LAYER   1   ROW     4   COL     5   RATE    -103.542    
 BOUNDARY     51   LAYER   1   ROW     4   COL     6   RATE    -103.542    
 BOUNDARY     52   LAYER   1   ROW     4   COL     7   RATE    -103.542    
 BOUNDARY     53   LAYER   1   ROW     4   COL     8   RATE    -103.542    
 BOUNDARY     54   LAYER   1   ROW     4   COL     9   RATE    -103.542    
 BOUNDARY     55   LAYER   1   ROW     4   COL    10   RATE    -103.542    
 BOUNDARY     56   LAYER   1   ROW     4   COL    11   RATE    -103.542    
 BOUNDARY     57   LAYER   1   ROW     4   COL    12   RATE    -28.0137    
 BOUNDARY     58   LAYER   1   ROW     4   COL    13   RATE    -4.31686    
 BOUNDARY     59   LAYER   1   ROW     4   COL    14   RATE     0.00000    
 BOUNDARY     60   LAYER   1   ROW     4   COL    15   RATE     0.00000    
 BOUNDARY     61   LAYER   1   ROW     5   COL     1   RATE     0.00000    
 BOUNDARY     62   LAYER   1   ROW     5   COL     2   RATE    -6.97408    
 BOUNDARY     63   LAYER   1   ROW     5   COL     3   RATE    -46.4708    
 BOUNDARY     64   LAYER   1   ROW     5   COL     4   RATE    -103.542    
 BOUNDARY     65   LAYER   1   ROW     5   COL     5   RATE    -103.542    
 BOUNDARY     66   LAYER   1   ROW     5   COL     6   RATE    -103.542    
 BOUNDARY     67   LAYER   1   ROW     5   COL     7   RATE    -103.542    
 BOUNDARY     68   LAYER   1   ROW     5   COL     8   RATE    -103.542    
 BOUNDARY     69   LAYER   1   ROW     5   COL     9   RATE    -103.542    
 BOUNDARY     70   LAYER   1   ROW     5   COL    10   RATE    -103.542    
 BOUNDARY     71   LAYER   1   ROW     5   COL    11   RATE    -103.542    
 BOUNDARY     72   LAYER   1   ROW     5   COL    12   RATE    -29.9963    
 BOUNDARY     73   LAYER   1   ROW     5   COL    13   RATE    -5.23119    
 BOUNDARY     74   LAYER   1   ROW     5   COL    14   RATE     0.00000    
 BOUNDARY     75   LAYER   1   ROW     5   COL    15   RATE     0.00000    
 BOUNDARY     76   LAYER   1   ROW     6   COL     1   RATE     0.00000    
 BOUNDARY     77   LAYER   1   ROW     6   COL     2   RATE    -5.47878    
 BOUNDARY     78   LAYER   1   ROW     6   COL     3   RATE    -50.4294    
 BOUNDARY     79   LAYER   1   ROW     6   COL     4   RATE    -103.542    
 BOUNDARY     80   LAYER   1   ROW     6   COL     5   RATE    -103.542    
 BOUNDARY     81   LAYER   1   ROW     6   COL     6   RATE    -103.542    
 BOUNDARY     82   LAYER   1   ROW     6   COL     7   RATE    -103.542    
 BOUNDARY     83   LAYER   1   ROW     6   COL     8   RATE    -103.542    
 BOUNDARY     84   LAYER   1   ROW     6   COL     9   RATE    -103.542    
 BOUNDARY     85   LAYER   1   ROW     6   COL    10   RATE    -103.542    
 BOUNDARY     86   LAYER   1   ROW     6   COL    11   RATE    -103.542    
 BOUNDARY     87   LAYER   1   ROW     6   COL    12   RATE    -30.6625    
 BOUNDARY     88   LAYER   1   ROW     6   COL    13   RATE    -5.18047    
 BOUNDARY     89   LAYER   1   ROW     6   COL    14   RATE     0.00000    
 BOUNDARY     90   LAYER   1   ROW     6   COL    15   RATE     0.00000    
 BOUNDARY     91   LAYER   1   ROW     7   COL     1   RATE     0.00000    
 BOUNDARY     92   LAYER   1   ROW     7   COL     2   RATE    -1.81558    
 BOUNDARY     93   LAYER   1   ROW     7   COL     3   RATE    -57.5908    
 BOUNDARY     94   LAYER   1   ROW     7   COL     4   RATE    -103.542    
 BOUNDARY     95   LAYER   1   ROW     7   COL     5   RATE    -103.542    
 BOUNDARY     96   LAYER   1   ROW     7   COL     6   RATE    -103.542    
 BOUNDARY     97   LAYER   1   ROW     7   COL     7   RATE    -103.542    
 BOUNDARY     98   LAYER   1   ROW     7   COL     8   RATE    -103.542    
 BOUNDARY     99   LAYER   1   ROW     7   COL     9   RATE    -103.542    
 BOUNDARY    100   LAYER   1   ROW     7   COL    10   RATE    -103.542    
 BOUNDARY    101   LAYER   1   ROW     7   COL    11   RATE    -103.542    
 BOUNDARY    102   LAYER   1   ROW     7   COL    12   RATE    -30.5133    
 BOUNDARY    103   LAYER   1   ROW     7   COL    13   RATE    -4.43849    
 BOUNDARY    104   LAYER   1   ROW     7   COL    14   RATE     0.00000    
 BOUNDARY    105   LAYER   1   ROW     7   COL    15   RATE     0.00000    
 BOUNDARY    106   LAYER   1   ROW     8   COL     1   RATE     0.00000    
 BOUNDARY    107   LAYER   1   ROW     8   COL     2   RATE    -14.4107    
 BOUNDARY    108   LAYER   1   ROW     8   COL     3   RATE    -103.542    
 BOUNDARY    109   LAYER   1   ROW     8   COL     4   RATE    -103.542    
 BOUNDARY    110   LAYER   1   ROW     8   COL     5   RATE    -103.542    
 BOUNDARY    111   LAYER   1   ROW     8   COL     6   RATE    -103.542    
 BOUNDARY    112   LAYER   1   ROW     8   COL     7   RATE    -103.542    
 BOUNDARY    113   LAYER   1   ROW     8   COL     8   RATE    -103.542    
 BOUNDARY    114   LAYER   1   ROW     8   COL     9   RATE    -103.542    
 BOUNDARY    115   LAYER   1   ROW     8   COL    10   RATE    -103.542    
 BOUNDARY    116   LAYER   1   ROW     8   COL    11   RATE    -103.542    
 BOUNDARY    117   LAYER   1   ROW     8   COL    12   RATE    -30.9481    
 BOUNDARY    118   LAYER   1   ROW     8   COL    13   RATE    -4.47288    
 BOUNDARY    119   LAYER   1   ROW     8   COL    14   RATE     0.00000    
 BOUNDARY    120   LAYER   1   ROW     8   COL    15   RATE     0.00000    
 BOUNDARY    121   LAYER   1   ROW     9   COL     1   RATE    -22.2867    
 BOUNDARY    122   LAYER   1   ROW     9   COL     2   RATE    -77.5764    
 BOUNDARY    123   LAYER   1   ROW     9   COL     3   RATE    -103.542    
 BOUNDARY    124   LAYER   1   ROW     9   COL     4   RATE    -103.542    
 BOUNDARY    125   LAYER   1   ROW     9   COL     5   RATE    -103.542    
 BOUNDARY    126   LAYER   1   ROW     9   COL     6   RATE    -103.542    
 BOUNDARY    127   LAYER   1   ROW     9   COL     7   RATE    -103.542    
 BOUNDARY    128   LAYER   1   ROW     9   COL     8   RATE    -103.542    
 BOUNDARY    129   LAYER   1   ROW     9   COL     9   RATE    -103.542    
 BOUNDARY    130   LAYER   1   ROW     9   COL    10   RATE    -103.542    
 BOUNDARY    131   LAYER   1   ROW     9   COL    11   RATE    -103.542    
 BOUNDARY    132   LAYER   1   ROW     9   COL    12   RATE    -36.6042    
 BOUNDARY    133   LAYER   1   ROW     9   COL    13   RATE    -5.36416    
 BOUNDARY    134   LAYER   1   ROW     9   COL    14   RATE     0.00000    
 BOUNDARY    135   LAYER   1   ROW     9   COL    15   RATE     0.00000    
 BOUNDARY    136   LAYER   1   ROW    10   COL     1   RATE    -86.0400    
 BOUNDARY    137   LAYER   1   ROW    10   COL     2   RATE    -103.542    
 BOUNDARY    138   LAYER   1   ROW    10   COL     3   RATE    -103.542    
 BOUNDARY    139   LAYER   1   ROW    10   COL     4   RATE    -103.542    
 BOUNDARY    140   LAYER   1   ROW    10   COL     5   RATE    -103.542    
 BOUNDARY    141   LAYER   1   ROW    10   COL     6   RATE    -103.542    
 BOUNDARY    142   LAYER   1   ROW    10   COL     7   RATE    -103.542    
 BOUNDARY    143   LAYER   1   ROW    10   COL     8   RATE    -103.542    
 BOUNDARY    144   LAYER   1   ROW    10   COL     9   RATE    -103.542    
 BOUNDARY    145   LAYER   1   ROW    10   COL    10   RATE    -103.542    
 BOUNDARY    146   LAYER   1   ROW    10   COL    11   RATE    -103.542    
 BOUNDARY    147   LAYER   1   ROW    10   COL    12   RATE    -40.9828    
 BOUNDARY    148   LAYER   1   ROW    10   COL    13   RATE    -5.93186    
 BOUNDARY    149   LAYER   1   ROW    10   COL    14   RATE     0.00000    
 BOUNDARY    150   LAYER   1   ROW    10   COL    15   RATE     0.00000    

 HEAD WILL BE SAVED ON UNIT 1017 AT END OF TIME STEP    8, STRESS PERIOD    5
WEL   no.    1 value from time series:   0.0000     for time:  99.00     to 100.00    
WEL   no.    2 value from time series:   0.0000     for time:  99.00     to 100.00    
RIV   no.    1 value from time series:   101.00     for time:  99.00     to 100.00    
RIV   no.    2 value from time series:   101.00     for time:  99.00     to 100.00    
RIV   no.    3 value from time series:   111.50     for time:  99.00     to 100.00    
RIV   no.    4 value from time series:   111.50     for time:  99.00     to 100.00    
RIV   no.    5 value from time series:   115.10     for time:  99.00     to 100.00    
RIV   no.    6 value from time series:   115.10     for time:  99.00     to 100.00    
RIV   no.    7 value from time series:   104.00     for time:  99.00     to 100.00    
RIV   no.    8 value from time series:   104.00     for time:  99.00     to 100.00    
RIV   no.    9 value from time series:   113.50     for time:  99.00     to 100.00    
RIV   no.   10 value from time series:   113.50     for time:  99.00     to 100.00    
WEL   no.    1 value from time series:   0.0000     for time:  99.00     to 100.00    
WEL   no.    2 value from time series:   0.0000     for time:  99.00     to 100.00    
RIV   no.    1 value from time series:   101.00     for time:  99.00     to 100.00    
RIV   no.    2 value from time series:   101.00     for time:  99.00     to 100.00    
RIV   no.    3 value from time series:   111.50     for time:  99.00     to 100.00    
RIV   no.    4 value from time series:   111.50     for time:  99.00     to 100.00    
RIV   no.    5 value from time series:   115.10     for time:  99.00     to 100.00    
RIV   no.    6 value from time series:   115.10     for time:  99.00     to 100.00    
RIV   no.    7 value from time series:   104.00     for time:  99.00     to 100.00    
RIV   no.    8 value from time series:   104.00     for time:  99.00     to 100.00    
RIV   no.    9 value from time series:   113.50     for time:  99.00     to 100.00    
RIV   no.   10 value from time series:   113.50     for time:  99.00     to 100.00    

 OUTPUT CONTROL FOR STRESS PERIOD    5   TIME STEP    9
    SAVE BUDGET
    SAVE HEAD
    SAVE HEAD FOR ALL LAYERS
 UBDSV1 SAVING          STORAGE ON UNIT   1016 AT TIME STEP      9, STRESS PERIOD      5
 UBDSV1 SAVING FLOW RIGHT FACE  ON UNIT   1016 AT TIME STEP      9, STRESS PERIOD      5
 UBDSV1 SAVING FLOW FRONT FACE  ON UNIT   1016 AT TIME STEP      9, STRESS PERIOD      5
 UBDSV1 SAVING FLOW LOWER FACE  ON UNIT   1016 AT TIME STEP      9, STRESS PERIOD      5
 UBDSV4 SAVING WELLS NEAR RIVER ON UNIT   1016 AT TIME STEP      9, STRESS PERIOD      5

 WELLS NEAR RIVER   PERIOD  5   STEP  9
 BOUNDARY      1   LAYER   2   ROW     8   COL     4   RATE     0.00000      WELL_2
 BOUNDARY      2   LAYER   2   ROW     3   COL     4   RATE     0.00000      WELL_1
 UBDSV4 SAVING RIVER            ON UNIT   1016 AT TIME STEP      9, STRESS PERIOD      5

 RIVER              PERIOD  5   STEP  9
 BOUNDARY      1   LAYER   1   ROW     1   COL    15   RATE    -4900.33    
 BOUNDARY      2   LAYER   1   ROW     2   COL    15   RATE    -6025.01      RIV2
 BOUNDARY      3   LAYER   1   ROW     3   COL    15   RATE    -2291.20      RIV3
 BOUNDARY      4   LAYER   1   ROW     4   COL    15   RATE    -3754.80    
 BOUNDARY      5   LAYER   1   ROW     5   COL    15   RATE    -2392.70    
 BOUNDARY      6   LAYER   1   ROW     6   COL    15   RATE    -1740.37    
 BOUNDARY      7   LAYER   1   ROW     7   COL    15   RATE    -6222.90      RIVX
 BOUNDARY      8   LAYER   1   ROW     8   COL    15   RATE    -6071.24      RIVX
 BOUNDARY      9   LAYER   1   ROW     9   COL    15   RATE    -2281.01      RIVX
 BOUNDARY     10   LAYER   1   ROW    10   COL    15   RATE    -3186.12    

 GHB LAKES          PERIOD  5   STEP  9
 BOUNDARY      1   LAYER   1   ROW     3   COL     1   RATE    -14760.4    
 BOUNDARY      2   LAYER   1   ROW     7   COL     1   RATE    -2073.64      GHB2_UPPER
 BOUNDARY      3   LAYER   1   ROW     7   COL     1   RATE    -13318.4      GHB2_LOWER
 UBDSV4 SAVING RECHARGE         ON UNIT   1016 AT TIME STEP      9, STRESS PERIOD      5

 RECHARGE           PERIOD  5   STEP  9
 BOUNDARY      1   LAYER   1   ROW     1   COL     1   RATE     756.667    
 BOUNDARY      2   LAYER   1   ROW     1   COL     2   RATE     756.667    
 BOUNDARY      3   LAYER   1   ROW     1   COL     3   RATE     756.667    
 BOUNDARY      4   LAYER   1   ROW     1   COL     4   RATE     756.667    
 BOUNDARY      5   LAYER   1   ROW     1   COL     5   RATE     756.667    
 BOUNDARY      6   LAYER   1   ROW     1   COL     6   RATE     756.667    
 BOUNDARY      7   LAYER   1   ROW     1   COL     7   RATE     756.667    
 BOUNDARY      8   LAYER   1   ROW     1   COL     8   RATE     756.667    
 BOUNDARY      9   LAYER   1   ROW     1   COL     9   RATE     756.667    
 BOUNDARY     10   LAYER   1   ROW     1   COL    10   RATE     756.667    
 BOUNDARY     11   LAYER   1   ROW     1   COL    11   RATE     756.667    
 BOUNDARY     12   LAYER   1   ROW     1   COL    12   RATE     756.667    
 BOUNDARY     13   LAYER   1   ROW     1   COL    13   RATE     756.667    
 BOUNDARY     14   LAYER   1   ROW     1   COL    14   RATE     756.667    
 BOUNDARY     15   LAYER   1   ROW     1   COL    15   RATE     756.667    
 BOUNDARY     16   LAYER   1   ROW     2   COL     1   RATE     756.667    
 BOUNDARY     17   LAYER   1   ROW     2   COL     2   RATE     756.667    
 BOUNDARY     18   LAYER   1   ROW     2   COL     3   RATE     756.667    
 BOUNDARY     19   LAYER   1   ROW     2   COL     4   RATE     756.667    
 BOUNDARY     20   LAYER   1   ROW     2   COL     5   RATE     756.667    
 BOUNDARY     21   LAYER   1   ROW     2   COL     6   RATE     756.667    
 BOUNDARY     22   LAYER   1   ROW     2   COL     7   RATE     756.667    
 BOUNDARY     23   LAYER   1   ROW     2   COL     8   RATE     756.667    
 BOUNDARY     24   LAYER   1   ROW     2   COL     9   RATE     756.667    
 BOUNDARY     25   LAYER   1   ROW     2   COL    10   RATE     756.667    
 BOUNDARY     26   LAYER   1   ROW     2   COL    11   RATE     756.667    
 BOUNDARY     27   LAYER   1   ROW     2   COL    12   RATE     756.667    
 BOUNDARY     28   LAYER   1   ROW     2   COL    13   RATE     756.667    
 BOUNDARY     29   LAYER   1   ROW     2   COL    14   RATE     756.667    
 BOUNDARY     30   LAYER   1   ROW     2   COL    15   RATE     756.667    
 BOUNDARY     31   LAYER   1   ROW     3   COL     1   RATE     756.667    
 BOUNDARY     32   LAYER   1   ROW     3   COL     2   RATE     756.667    
 BOUNDARY     33   LAYER   1   ROW     3   COL     3   RATE     756.667    
 BOUNDARY     34   LAYER   1   ROW     3   COL     4   RATE     756.667    
 BOUNDARY     35   LAYER   1   ROW     3   COL     5   RATE     756.667    
 BOUNDARY     36   LAYER   1   ROW     3   COL     6   RATE     756.667    
 BOUNDARY     37   LAYER   1   ROW     3   COL     7   RATE     756.667    
 BOUNDARY     38   LAYER   1   ROW     3   COL     8   RATE     756.667    
 BOUNDARY     39   LAYER   1   ROW     3   COL     9   RATE     756.667    
 BOUNDARY     40   LAYER   1   ROW     3   COL    10   RATE     756.667    
 BOUNDARY     41   LAYER   1   ROW     3   COL    11   RATE     756.667    
 BOUNDARY     42   LAYER   1   ROW     3   COL    12   RATE     756.667    
 BOUNDARY     43   LAYER   1   ROW     3   COL    13   RATE     756.667    
 BOUNDARY     44   LAYER   1   ROW     3   COL    14   RATE     756.667    
 BOUNDARY     45   LAYER   1   ROW     3   COL    15   RATE     756.667    
 BOUNDARY     46   LAYER   1   ROW     4   COL     1   RATE     756.667    
 BOUNDARY     47   LAYER   1   ROW     4   COL     2   RATE     756.667    
 BOUNDARY     48   LAYER   1   ROW     4   COL     3   RATE     756.667    
 BOUNDARY     49   LAYER   1   ROW     4   COL     4   RATE     756.667    
 BOUNDARY     50   LAYER   1   ROW     4   COL     5   RATE     756.667    
 BOUNDARY     51   LAYER   1   ROW     4   COL     6   RATE     756.667    
 BOUNDARY     52   LAYER   1   ROW     4   COL     7   RATE     756.667    
 BOUNDARY     53   LAYER   1   ROW     4   COL     8   RATE     756.667    
 BOUNDARY     54   LAYER   1   ROW     4   COL     9   RATE     756.667    
 BOUNDARY     55   LAYER   1   ROW     4   COL    10   RATE     756.667    
 BOUNDARY     56   LAYER   1   ROW     4   COL    11   RATE     756.667    
 BOUNDARY     57   LAYER   1   ROW     4   COL    12   RATE     756.667    
 BOUNDARY     58   LAYER   1   ROW     4   COL    13   RATE     756.667    
 BOUNDARY     59   LAYER   1   ROW     4   COL    14   RATE     756.667    
 BOUNDARY     60   LAYER   1   ROW     4   COL    15   RATE     756.667    
 BOUNDARY     61   LAYER   1   ROW     5   COL     1   RATE     756.667    
 BOUNDARY     62   LAYER   1   ROW     5   COL     2   RATE     756.667    
 BOUNDARY     63   LAYER   1   ROW     5   COL     3   RATE     756.667    
 BOUNDARY     64   LAYER   1   ROW     5   COL     4   RATE     756.667    
 BOUNDARY     65   LAYER   1   ROW     5   COL     5   RATE     756.667    
 BOUNDARY     66   LAYER   1   ROW     5   COL     6   RATE     756.667    
 BOUNDARY     67   LAYER   1   ROW     5   COL     7   RATE     756.667    
 BOUNDARY     68   LAYER   1   ROW     5   COL     8   RATE     756.667    
 BOUNDARY     69   LAYER   1   ROW     5   COL     9   RATE     756.667    
 BOUNDARY     70   LAYER   1   ROW     5   COL    10   RATE     756.667    
 BOUNDARY     71   LAYER   1   ROW     5   COL    11   RATE     756.667    
 BOUNDARY     72   LAYER   1   ROW     5   COL    12   RATE     756.667    
 BOUNDARY     73   LAYER   1   ROW     5   COL    13   RATE     756.667    
 BOUNDARY     74   LAYER   1   ROW     5   COL    14   RATE     756.667    
 BOUNDARY     75   LAYER   1   ROW     5   COL    15   RATE     756.667    
 BOUNDARY     76   LAYER   1   ROW     6   COL     1   RATE     756.667    
 BOUNDARY     77   LAYER   1   ROW     6   COL     2   RATE     756.667    
 BOUNDARY     78   LAYER   1   ROW     6   COL     3   RATE     756.667    
 BOUNDARY     79   LAYER   1   ROW     6   COL     4   RATE     756.667    
 BOUNDARY     80   LAYER   1   ROW     6   COL     5   RATE     756.667    
 BOUNDARY     81   LAYER   1   ROW     6   COL     6   RATE     756.667    
 BOUNDARY     82   LAYER   1   ROW     6   COL     7   RATE     756.667    
 BOUNDARY     83   LAYER   1   ROW     6   COL     8   RATE     756.667    
 BOUNDARY     84   LAYER   1   ROW     6   COL     9   RATE     756.667    
 BOUNDARY     85   LAYER   1   ROW     6   COL    10   RATE     756.667    
 BOUNDARY     86   LAYER   1   ROW     6   COL    11   RATE     756.667    
 BOUNDARY     87   LAYER   1   ROW     6   COL    12   RATE     756.667    
 BOUNDARY     88   LAYER   1   ROW     6   COL    13   RATE     756.667    
 BOUNDARY     89   LAYER   1   ROW     6   COL    14   RATE     756.667    
 BOUNDARY     90   LAYER   1   ROW     6   COL    15   RATE     756.667    
 BOUNDARY     91   LAYER   1   ROW     7   COL     1   RATE     756.667    
 BOUNDARY     92   LAYER   1   ROW     7   COL     2   RATE     756.667    
 BOUNDARY     93   LAYER   1   ROW     7   COL     3   RATE     756.667    
 BOUNDARY     94   LAYER   1   ROW     7   COL     4   RATE     756.667    
 BOUNDARY     95   LAYER   1   ROW     7   COL     5   RATE     756.667    
 BOUNDARY     96   LAYER   1   ROW     7   COL     6   RATE     756.667    
 BOUNDARY     97   LAYER   1   ROW     7   COL     7   RATE     756.667    
 BOUNDARY     98   LAYER   1   ROW     7   COL     8   RATE     756.667    
 BOUNDARY     99   LAYER   1   ROW     7   COL     9   RATE     756.667    
 BOUNDARY    100   LAYER   1   ROW     7   COL    10   RATE     756.667    
 BOUNDARY    101   LAYER   1   ROW     7   COL    11   RATE     756.667    
 BOUNDARY    102   LAYER   1   ROW     7   COL    12   RATE     756.667    
 BOUNDARY    103   LAYER   1   ROW     7   COL    13   RATE     756.667    
 BOUNDARY    104   LAYER   1   ROW     7   COL    14   RATE     756.667    
 BOUNDARY    105   LAYER   1   ROW     7   COL    15   RATE     756.667    
 BOUNDARY    106   LAYER   1   ROW     8   COL     1   RATE     756.667    
 BOUNDARY    107   LAYER   1   ROW     8   COL     2   RATE     756.667    
 BOUNDARY    108   LAYER   1   ROW     8   COL     3   RATE     756.667    
 BOUNDARY    109   LAYER   1   ROW     8   COL     4   RATE     756.667    
 BOUNDARY    110   LAYER   1   ROW     8   COL     5   RATE     756.667    
 BOUNDARY    111   LAYER   1   ROW     8   COL     6   RATE     756.667    
 BOUNDARY    112   LAYER   1   ROW     8   COL     7   RATE     756.667    
 BOUNDARY    113   LAYER   1   ROW     8   COL     8   RATE     756.667    
 BOUNDARY    114   LAYER   1   ROW     8   COL     9   RATE     756.667    
 BOUNDARY    115   LAYER   1   ROW     8   COL    10   RATE     756.667    
 BOUNDARY    116   LAYER   1   ROW     8   COL    11   RATE     756.667    
 BOUNDARY    117   LAYER   1   ROW     8   COL    12   RATE     756.667    
 BOUNDARY    118   LAYER   1   ROW     8   COL    13   RATE     756.667    
 BOUNDARY    119   LAYER   1   ROW     8   COL    14   RATE     756.667    
 BOUNDARY    120   LAYER   1   ROW     8   COL    15   RATE     756.667    
 BOUNDARY    121   LAYER   1   ROW     9   COL     1   RATE     756.667    
 BOUNDARY    122   LAYER   1   ROW     9   COL     2   RATE     756.667    
 BOUNDARY    123   LAYER   1   ROW     9   COL     3   RATE     756.667    
 BOUNDARY    124   LAYER   1   ROW     9   COL     4   RATE     756.667    
 BOUNDARY    125   LAYER   1   ROW     9   COL     5   RATE     756.667    
 BOUNDARY    126   LAYER   1   ROW     9   COL     6   RATE     756.667    
 BOUNDARY    127   LAYER   1   ROW     9   COL     7   RATE     756.667    
 BOUNDARY    128   LAYER   1   ROW     9   COL     8   RATE     756.667    
 BOUNDARY    129   LAYER   1   ROW     9   COL     9   RATE     756.667    
 BOUNDARY    130   LAYER   1   ROW     9   COL    10   RATE     756.667    
 BOUNDARY    131   LAYER   1   ROW     9   COL    11   RATE     756.667    
 BOUNDARY    132   LAYER   1   ROW     9   COL    12   RATE     756.667    
 BOUNDARY    133   LAYER   1   ROW     9   COL    13   RATE     756.667    
 BOUNDARY    134   LAYER   1   ROW     9   COL    14   RATE     756.667    
 BOUNDARY    135   LAYER   1   ROW     9   COL    15   RATE     756.667    
 BOUNDARY    136   LAYER   1   ROW    10   COL     1   RATE     756.667    
 BOUNDARY    137   LAYER   1   ROW    10   COL     2   RATE     756.667    
 BOUNDARY    138   LAYER   1   ROW    10   COL     3   RATE     756.667    
 BOUNDARY    139   LAYER   1   ROW    10   COL     4   RATE     756.667    
 BOUNDARY    140   LAYER   1   ROW    10   COL     5   RATE     756.667    
 BOUNDARY    141   LAYER   1   ROW    10   COL     6   RATE     756.667    
 BOUNDARY    142   LAYER   1   ROW    10   COL     7   RATE     756.667    
 BOUNDARY    143   LAYER   1   ROW    10   COL     8   RATE     756.667    
 BOUNDARY    144   LAYER   1   ROW    10   COL     9   RATE     756.667    
 BOUNDARY    145   LAYER   1   ROW    10   COL    10   RATE     756.667    
 BOUNDARY    146   LAYER   1   ROW    10   COL    11   RATE     756.667    
 BOUNDARY    147   LAYER   1   ROW    10   COL    12   RATE     756.667    
 BOUNDARY    148   LAYER   1   ROW    10   COL    13   RATE     756.667    
 BOUNDARY    149   LAYER   1   ROW    10   COL    14   RATE     756.667    
 BOUNDARY    150   LAYER   1   ROW    10   COL    15   RATE     756.667    
 UBDSV4 SAVING ET SEGS          ON UNIT   1016 AT TIME STEP      9, STRESS PERIOD      5

 ET SEGS            PERIOD  5   STEP  9
 BOUNDARY      1   LAYER   1   ROW     1   COL     1   RATE    -3.06174    
 BOUNDARY      2   LAYER   1   ROW     1   COL     2   RATE    -10.2025    
 BOUNDARY      3   LAYER   1   ROW     1   COL     3   RATE    -66.0337    
 BOUNDARY      4   LAYER   1   ROW     1   COL     4   RATE    -103.958    
 BOUNDARY      5   LAYER   1   ROW     1   COL     5   RATE    -103.958    
 BOUNDARY      6   LAYER   1   ROW     1   COL     6   RATE    -103.958    
 BOUNDARY      7   LAYER   1   ROW     1   COL     7   RATE    -103.958    
 BOUNDARY      8   LAYER   1   ROW     1   COL     8   RATE    -103.958    
 BOUNDARY      9   LAYER   1   ROW     1   COL     9   RATE    -103.958    
 BOUNDARY     10   LAYER   1   ROW     1   COL    10   RATE    -103.958    
 BOUNDARY     11   LAYER   1   ROW     1   COL    11   RATE    -103.958    
 BOUNDARY     12   LAYER   1   ROW     1   COL    12   RATE    -20.4286    
 BOUNDARY     13   LAYER   1   ROW     1   COL    13   RATE     0.00000    
 BOUNDARY     14   LAYER   1   ROW     1   COL    14   RATE     0.00000    
 BOUNDARY     15   LAYER   1   ROW     1   COL    15   RATE     0.00000    
 BOUNDARY     16   LAYER   1   ROW     2   COL     1   RATE     0.00000    
 BOUNDARY     17   LAYER   1   ROW     2   COL     2   RATE    -5.48859    
 BOUNDARY     18   LAYER   1   ROW     2   COL     3   RATE    -36.7416    
 BOUNDARY     19   LAYER   1   ROW     2   COL     4   RATE    -103.958    
 BOUNDARY     20   LAYER   1   ROW     2   COL     5   RATE    -103.958    
 BOUNDARY     21   LAYER   1   ROW     2   COL     6   RATE    -103.958    
 BOUNDARY     22   LAYER   1   ROW     2   COL     7   RATE    -103.958    
 BOUNDARY     23   LAYER   1   ROW     2   COL     8   RATE    -103.958    
 BOUNDARY     24   LAYER   1   ROW     2   COL     9   RATE    -103.958    
 BOUNDARY     25   LAYER   1   ROW     2   COL    10   RATE    -103.958    
 BOUNDARY     26   LAYER   1   ROW     2   COL    11   RATE    -103.958    
 BOUNDARY     27   LAYER   1   ROW     2   COL    12   RATE    -22.2415    
 BOUNDARY     28   LAYER   1   ROW     2   COL    13   RATE   -0.979620    
 BOUNDARY     29   LAYER   1   ROW     2   COL    14   RATE     0.00000    
 BOUNDARY     30   LAYER   1   ROW     2   COL    15   RATE     0.00000    
 BOUNDARY     31   LAYER   1   ROW     3   COL     1   RATE     0.00000    
 BOUNDARY     32   LAYER   1   ROW     3   COL     2   RATE     0.00000    
 BOUNDARY     33   LAYER   1   ROW     3   COL     3   RATE    -26.0279    
 BOUNDARY     34   LAYER   1   ROW     3   COL     4   RATE    -103.958    
 BOUNDARY     35   LAYER   1   ROW     3   COL     5   RATE    -103.958    
 BOUNDARY     36   LAYER   1   ROW     3   COL     6   RATE    -103.958    
 BOUNDARY     37   LAYER   1   ROW     3   COL     7   RATE    -103.958    
 BOUNDARY     38   LAYER   1   ROW     3   COL     8   RATE    -103.958    
 BOUNDARY     39   LAYER   1   ROW     3   COL     9   RATE    -103.958    
 BOUNDARY     40   LAYER   1   ROW     3   COL    10   RATE    -103.958    
 BOUNDARY     41   LAYER   1   ROW     3   COL    11   RATE    -103.958    
 BOUNDARY     42   LAYER   1   ROW     3   COL    12   RATE    -25.2969    
 BOUNDARY     43   LAYER   1   ROW     3   COL    13   RATE    -2.84583    
 BOUNDARY     44   LAYER   1   ROW     3   COL    14   RATE     0.00000    
 BOUNDARY     45   LAYER   1   ROW     3   COL    15   RATE     0.00000    
 BOUNDARY     46   LAYER   1   ROW     4   COL     1   RATE     0.00000    
 BOUNDARY     47   LAYER   1   ROW     4   COL     2   RATE    -3.91957    
 BOUNDARY     48   LAYER   1   ROW     4   COL     3   RATE    -30.0808    
 BOUNDARY     49   LAYER   1   ROW     4   COL     4   RATE    -103.958    
 BOUNDARY     50   LAYER   1   ROW     4   COL     5   RATE    -103.958    
 BOUNDARY     51   LAYER   1   ROW     4   COL     6   RATE    -103.958    
 BOUNDARY     52   LAYER   1   ROW     4   COL     7   RATE    -103.958    
 BOUNDARY     53   LAYER   1   ROW     4   COL     8   RATE    -103.958    
 BOUNDARY     54   LAYER   1   ROW     4   COL     9   RATE    -103.958    
 BOUNDARY     55   LAYER   1   ROW     4   COL    10   RATE    -103.958    
 BOUNDARY     56   LAYER   1   ROW     4   COL    11   RATE    -103.958    
 BOUNDARY     57   LAYER   1   ROW     4   COL    12   RATE    -28.1956    
 BOUNDARY     58   LAYER   1   ROW     4   COL    13   RATE    -4.35457    
 BOUNDARY     59   LAYER   1   ROW     4   COL    14   RATE     0.00000    
 BOUNDARY     60   LAYER   1   ROW     4   COL    15   RATE     0.00000    
 BOUNDARY     61   LAYER   1   ROW     5   COL     1   RATE     0.00000    
 BOUNDARY     62   LAYER   1   ROW     5   COL     2   RATE    -7.02246    
 BOUNDARY     63   LAYER   1   ROW     5   COL     3   RATE    -47.0086    
 BOUNDARY     64   LAYER   1   ROW     5   COL     4   RATE    -103.958    
 BOUNDARY     65   LAYER   1   ROW     5   COL     5   RATE    -103.958    
 BOUNDARY     66   LAYER   1   ROW     5   COL     6   RATE    -103.958    
 BOUNDARY     67   LAYER   1   ROW     5   COL     7   RATE    -103.958    
 BOUNDARY     68   LAYER   1   ROW     5   COL     8   RATE    -103.958    
 BOUNDARY     69   LAYER   1   ROW     5   COL     9   RATE    -103.958    
 BOUNDARY     70   LAYER   1   ROW     5   COL    10   RATE    -103.958    
 BOUNDARY     71   LAYER   1   ROW     5   COL    11   RATE    -103.958    
 BOUNDARY     72   LAYER   1   ROW     5   COL    12   RATE    -30.1859    
 BOUNDARY     73   LAYER   1   ROW     5   COL    13   RATE    -5.27233    
 BOUNDARY     74   LAYER   1   ROW     5   COL    14   RATE     0.00000    
 BOUNDARY     75   LAYER   1   ROW     5   COL    15   RATE     0.00000    
 BOUNDARY     76   LAYER   1   ROW     6   COL     1   RATE     0.00000    
 BOUNDARY     77   LAYER   1   ROW     6   COL     2   RATE    -5.52067    
 BOUNDARY     78   LAYER   1   ROW     6   COL     3   RATE    -50.9798    
 BOUNDARY     79   LAYER   1   ROW     6   COL     4   RATE    -103.958    
 BOUNDARY     80   LAYER   1   ROW     6   COL     5   RATE    -103.958    
 BOUNDARY     81   LAYER   1   ROW     6   COL     6   RATE    -103.958    
 BOUNDARY     82   LAYER   1   ROW     6   COL     7   RATE    -103.958    
 BOUNDARY     83   LAYER   1   ROW     6   COL     8   RATE    -103.958    
 BOUNDARY     84   LAYER   1   ROW     6   COL     9   RATE    -103.958    
 BOUNDARY     85   LAYER   1   ROW     6   COL    10   RATE    -103.958    
 BOUNDARY     86   LAYER   1   ROW     6   COL    11   RATE    -103.958    
 BOUNDARY     87   LAYER   1   ROW     6   COL    12   RATE    -30.8546    
 BOUNDARY     88   LAYER   1   ROW     6   COL    13   RATE    -5.22132    
 BOUNDARY     89   LAYER   1   ROW     6   COL    14   RATE     0.00000    
 BOUNDARY     90   LAYER   1   ROW     6   COL    15   RATE     0.00000    
 BOUNDARY     91   LAYER   1   ROW     7   COL     1   RATE     0.00000    
 BOUNDARY     92   LAYER   1   ROW     7   COL     2   RATE    -1.84147    
 BOUNDARY     93   LAYER   1   ROW     7   COL     3   RATE    -58.1666    
 BOUNDARY     94   LAYER   1   ROW     7   COL     4   RATE    -103.958    
 BOUNDARY     95   LAYER   1   ROW     7   COL     5   RATE    -103.958    
 BOUNDARY     96   LAYER   1   ROW     7   COL     6   RATE    -103.958    
 BOUNDARY     97   LAYER   1   ROW     7   COL     7   RATE    -103.958    
 BOUNDARY     98   LAYER   1   ROW     7   COL     8   RATE    -103.958    
 BOUNDARY     99   LAYER   1   ROW     7   COL     9   RATE    -103.958    
 BOUNDARY    100   LAYER   1   ROW     7   COL    10   RATE    -103.958    
 BOUNDARY    101   LAYER   1   ROW     7   COL    11   RATE    -103.958    
 BOUNDARY    102   LAYER   1   ROW     7   COL    12   RATE    -30.7050    
 BOUNDARY    103   LAYER   1   ROW     7   COL    13   RATE    -4.47655    
 BOUNDARY    104   LAYER   1   ROW     7   COL    14   RATE     0.00000    
 BOUNDARY    105   LAYER   1   ROW     7   COL    15   RATE     0.00000    
 BOUNDARY    106   LAYER   1   ROW     8   COL     1   RATE     0.00000    
 BOUNDARY    107   LAYER   1   ROW     8   COL     2   RATE    -14.5346    
 BOUNDARY    108   LAYER   1   ROW     8   COL     3   RATE    -103.958    
 BOUNDARY    109   LAYER   1   ROW     8   COL     4   RATE    -103.958    
 BOUNDARY    110   LAYER   1   ROW     8   COL     5   RATE    -103.958    
 BOUNDARY    111   LAYER   1   ROW     8   COL     6   RATE    -103.958    
 BOUNDARY    112   LAYER   1   ROW     8   COL     7   RATE    -103.958    
 BOUNDARY    113   LAYER   1   ROW     8   COL     8   RATE    -103.958    
 BOUNDARY    114   LAYER   1   ROW     8   COL     9   RATE    -103.958    
 BOUNDARY    115   LAYER   1   ROW     8   COL    10   RATE    -103.958    
 BOUNDARY    116   LAYER   1   ROW     8   COL    11   RATE    -103.958    
 BOUNDARY    117   LAYER   1   ROW     8   COL    12   RATE    -31.1422    
 BOUNDARY    118   LAYER   1   ROW     8   COL    13   RATE    -4.51149    
 BOUNDARY    119   LAYER   1   ROW     8   COL    14   RATE     0.00000    
 BOUNDARY    120   LAYER   1   ROW     8   COL    15   RATE     0.00000    
 BOUNDARY    121   LAYER   1   ROW     9   COL     1   RATE    -22.4428    
 BOUNDARY    122   LAYER   1   ROW     9   COL     2   RATE    -78.2350    
 BOUNDARY    123   LAYER   1   ROW     9   COL     3   RATE    -103.958    
 BOUNDARY    124   LAYER   1   ROW     9   COL     4   RATE    -103.958    
 BOUNDARY    125   LAYER   1   ROW     9   COL     5   RATE    -103.958    
 BOUNDARY    126   LAYER   1   ROW     9   COL     6   RATE    -103.958    
 BOUNDARY    127   LAYER   1   ROW     9   COL     7   RATE    -103.958    
 BOUNDARY    128   LAYER   1   ROW     9   COL     8   RATE    -103.958    
 BOUNDARY    129   LAYER   1   ROW     9   COL     9   RATE    -103.958    
 BOUNDARY    130   LAYER   1   ROW     9   COL    10   RATE    -103.958    
 BOUNDARY    131   LAYER   1   ROW     9   COL    11   RATE    -103.958    
 BOUNDARY    132   LAYER   1   ROW     9   COL    12   RATE    -37.1153    
 BOUNDARY    133   LAYER   1   ROW     9   COL    13   RATE    -5.40678    
 BOUNDARY    134   LAYER   1   ROW     9   COL    14   RATE     0.00000    
 BOUNDARY    135   LAYER   1   ROW     9   COL    15   RATE     0.00000    
 BOUNDARY    136   LAYER   1   ROW    10   COL     1   RATE    -86.7297    
 BOUNDARY    137   LAYER   1   ROW    10   COL     2   RATE    -103.958    
 BOUNDARY    138   LAYER   1   ROW    10   COL     3   RATE    -103.958    
 BOUNDARY    139   LAYER   1   ROW    10   COL     4   RATE    -103.958    
 BOUNDARY    140   LAYER   1   ROW    10   COL     5   RATE    -103.958    
 BOUNDARY    141   LAYER   1   ROW    10   COL     6   RATE    -103.958    
 BOUNDARY    142   LAYER   1   ROW    10   COL     7   RATE    -103.958    
 BOUNDARY    143   LAYER   1   ROW    10   COL     8   RATE    -103.958    
 BOUNDARY    144   LAYER   1   ROW    10   COL     9   RATE    -103.958    
 BOUNDARY    145   LAYER   1   ROW    10   COL    10   RATE    -103.958    
 BOUNDARY    146   LAYER   1   ROW    10   COL    11   RATE    -103.958    
 BOUNDARY    147   LAYER   1   ROW    10   COL    12   RATE    -41.5118    
 BOUNDARY    148   LAYER   1   ROW    10   COL    13   RATE    -5.97704    
 BOUNDARY    149   LAYER   1   ROW    10   COL    14   RATE     0.00000    
 BOUNDARY    150   LAYER   1   ROW    10   COL    15   RATE     0.00000    

 HEAD WILL BE SAVED ON UNIT 1017 AT END OF TIME STEP    9, STRESS PERIOD    5
WEL   no.    1 value from time series:   0.0000     for time: 100.00     to  101.0    
WEL   no.    2 value from time series:   0.0000     for time: 100.00     to  101.0    
RIV   no.    1 value from time series:   101.00     for time: 100.00     to  101.0    
RIV   no.    2 value from time series:   101.00     for time: 100.00     to  101.0    
RIV   no.    3 value from time series:   111.50     for time: 100.00     to  101.0    
RIV   no.    4 value from time series:   111.50     for time: 100.00     to  101.0    
RIV   no.    5 value from time series:   115.10     for time: 100.00     to  101.0    
RIV   no.    6 value from time series:   115.10     for time: 100.00     to  101.0    
RIV   no.    7 value from time series:   104.00     for time: 100.00     to  101.0    
RIV   no.    8 value from time series:   104.00     for time: 100.00     to  101.0    
RIV   no.    9 value from time series:   113.50     for time: 100.00     to  101.0    
RIV   no.   10 value from time series:   113.50     for time: 100.00     to  101.0    
WEL   no.    1 value from time series:   0.0000     for time: 100.00     to  101.0    
WEL   no.    2 value from time series:   0.0000     for time: 100.00     to  101.0    
RIV   no.    1 value from time series:   101.00     for time: 100.00     to  101.0    
RIV   no.    2 value from time series:   101.00     for time: 100.00     to  101.0    
RIV   no.    3 value from time series:   111.50     for time: 100.00     to  101.0    
RIV   no.    4 value from time series:   111.50     for time: 100.00     to  101.0    
RIV   no.    5 value from time series:   115.10     for time: 100.00     to  101.0    
RIV   no.    6 value from time series:   115.10     for time: 100.00     to  101.0    
RIV   no.    7 value from time series:   104.00     for time: 100.00     to  101.0    
RIV   no.    8 value from time series:   104.00     for time: 100.00     to  101.0    
RIV   no.    9 value from time series:   113.50     for time: 100.00     to  101.0    
RIV   no.   10 value from time series:   113.50     for time: 100.00     to  101.0    

 OUTPUT CONTROL FOR STRESS PERIOD    5   TIME STEP   10
    SAVE BUDGET
    SAVE HEAD
    SAVE HEAD FOR ALL LAYERS
 UBDSV1 SAVING          STORAGE ON UNIT   1016 AT TIME STEP     10, STRESS PERIOD      5
 UBDSV1 SAVING FLOW RIGHT FACE  ON UNIT   1016 AT TIME STEP     10, STRESS PERIOD      5
 UBDSV1 SAVING FLOW FRONT FACE  ON UNIT   1016 AT TIME STEP     10, STRESS PERIOD      5
 UBDSV1 SAVING FLOW LOWER FACE  ON UNIT   1016 AT TIME STEP     10, STRESS PERIOD      5
 UBDSV4 SAVING WELLS NEAR RIVER ON UNIT   1016 AT TIME STEP     10, STRESS PERIOD      5

 WELLS NEAR RIVER   PERIOD  5   STEP 10
 BOUNDARY      1   LAYER   2   ROW     8   COL     4   RATE     0.00000      WELL_2
 BOUNDARY      2   LAYER   2   ROW     3   COL     4   RATE     0.00000      WELL_1
 UBDSV4 SAVING RIVER            ON UNIT   1016 AT TIME STEP     10, STRESS PERIOD      5

 RIVER              PERIOD  5   STEP 10
 BOUNDARY      1   LAYER   1   ROW     1   COL    15   RATE    -4904.11    
 BOUNDARY      2   LAYER   1   ROW     2   COL    15   RATE    -6028.89      RIV2
 BOUNDARY      3   LAYER   1   ROW     3   COL    15   RATE    -2295.09      RIV3
 BOUNDARY      4   LAYER   1   ROW     4   COL    15   RATE    -3758.76    
 BOUNDARY      5   LAYER   1   ROW     5   COL    15   RATE    -2396.59    
 BOUNDARY      6   LAYER   1   ROW     6   COL    15   RATE    -1744.21    
 BOUNDARY      7   LAYER   1   ROW     7   COL    15   RATE    -6226.87      RIVX
 BOUNDARY      8   LAYER   1   ROW     8   COL    15   RATE    -6075.32      RIVX
 BOUNDARY      9   LAYER   1   ROW     9   COL    15   RATE    -2285.13      RIVX
 BOUNDARY     10   LAYER   1   ROW    10   COL    15   RATE    -3190.35    

 GHB LAKES          PERIOD  5   STEP 10
 BOUNDARY      1   LAYER   1   ROW     3   COL     1   RATE    -14767.5    
 BOUNDARY      2   LAYER   1   ROW     7   COL     1   RATE    -2079.35      GHB2_UPPER
 BOUNDARY      3   LAYER   1   ROW     7   COL     1   RATE    -13320.5      GHB2_LOWER
 UBDSV4 SAVING RECHARGE         ON UNIT   1016 AT TIME STEP     10, STRESS PERIOD      5

 RECHARGE           PERIOD  5   STEP 10
 BOUNDARY      1   LAYER   1   ROW     1   COL     1   RATE     760.000    
 BOUNDARY      2   LAYER   1   ROW     1   COL     2   RATE     760.000    
 BOUNDARY      3   LAYER   1   ROW     1   COL     3   RATE     760.000    
 BOUNDARY      4   LAYER   1   ROW     1   COL     4   RATE     760.000    
 BOUNDARY      5   LAYER   1   ROW     1   COL     5   RATE     760.000    
 BOUNDARY      6   LAYER   1   ROW     1   COL     6   RATE     760.000    
 BOUNDARY      7   LAYER   1   ROW     1   COL     7   RATE     760.000    
 BOUNDARY      8   LAYER   1   ROW     1   COL     8   RATE     760.000    
 BOUNDARY      9   LAYER   1   ROW     1   COL     9   RATE     760.000    
 BOUNDARY     10   LAYER   1   ROW     1   COL    10   RATE     760.000    
 BOUNDARY     11   LAYER   1   ROW     1   COL    11   RATE     760.000    
 BOUNDARY     12   LAYER   1   ROW     1   COL    12   RATE     760.000    
 BOUNDARY     13   LAYER   1   ROW     1   COL    13   RATE     760.000    
 BOUNDARY     14   LAYER   1   ROW     1   COL    14   RATE     760.000    
 BOUNDARY     15   LAYER   1   ROW     1   COL    15   RATE     760.000    
 BOUNDARY     16   LAYER   1   ROW     2   COL     1   RATE     760.000    
 BOUNDARY     17   LAYER   1   ROW     2   COL     2   RATE     760.000    
 BOUNDARY     18   LAYER   1   ROW     2   COL     3   RATE     760.000    
 BOUNDARY     19   LAYER   1   ROW     2   COL     4   RATE     760.000    
 BOUNDARY     20   LAYER   1   ROW     2   COL     5   RATE     760.000    
 BOUNDARY     21   LAYER   1   ROW     2   COL     6   RATE     760.000    
 BOUNDARY     22   LAYER   1   ROW     2   COL     7   RATE     760.000    
 BOUNDARY     23   LAYER   1   ROW     2   COL     8   RATE     760.000    
 BOUNDARY     24   LAYER   1   ROW     2   COL     9   RATE     760.000    
 BOUNDARY     25   LAYER   1   ROW     2   COL    10   RATE     760.000    
 BOUNDARY     26   LAYER   1   ROW     2   COL    11   RATE     760.000    
 BOUNDARY     27   LAYER   1   ROW     2   COL    12   RATE     760.000    
 BOUNDARY     28   LAYER   1   ROW     2   COL    13   RATE     760.000    
 BOUNDARY     29   LAYER   1   ROW     2   COL    14   RATE     760.000    
 BOUNDARY     30   LAYER   1   ROW     2   COL    15   RATE     760.000    
 BOUNDARY     31   LAYER   1   ROW     3   COL     1   RATE     760.000    
 BOUNDARY     32   LAYER   1   ROW     3   COL     2   RATE     760.000    
 BOUNDARY     33   LAYER   1   ROW     3   COL     3   RATE     760.000    
 BOUNDARY     34   LAYER   1   ROW     3   COL     4   RATE     760.000    
 BOUNDARY     35   LAYER   1   ROW     3   COL     5   RATE     760.000    
 BOUNDARY     36   LAYER   1   ROW     3   COL     6   RATE     760.000    
 BOUNDARY     37   LAYER   1   ROW     3   COL     7   RATE     760.000    
 BOUNDARY     38   LAYER   1   ROW     3   COL     8   RATE     760.000    
 BOUNDARY     39   LAYER   1   ROW     3   COL     9   RATE     760.000    
 BOUNDARY     40   LAYER   1   ROW     3   COL    10   RATE     760.000    
 BOUNDARY     41   LAYER   1   ROW     3   COL    11   RATE     760.000    
 BOUNDARY     42   LAYER   1   ROW     3   COL    12   RATE     760.000    
 BOUNDARY     43   LAYER   1   ROW     3   COL    13   RATE     760.000    
 BOUNDARY     44   LAYER   1   ROW     3   COL    14   RATE     760.000    
 BOUNDARY     45   LAYER   1   ROW     3   COL    15   RATE     760.000    
 BOUNDARY     46   LAYER   1   ROW     4   COL     1   RATE     760.000    
 BOUNDARY     47   LAYER   1   ROW     4   COL     2   RATE     760.000    
 BOUNDARY     48   LAYER   1   ROW     4   COL     3   RATE     760.000    
 BOUNDARY     49   LAYER   1   ROW     4   COL     4   RATE     760.000    
 BOUNDARY     50   LAYER   1   ROW     4   COL     5   RATE     760.000    
 BOUNDARY     51   LAYER   1   ROW     4   COL     6   RATE     760.000    
 BOUNDARY     52   LAYER   1   ROW     4   COL     7   RATE     760.000    
 BOUNDARY     53   LAYER   1   ROW     4   COL     8   RATE     760.000    
 BOUNDARY     54   LAYER   1   ROW     4   COL     9   RATE     760.000    
 BOUNDARY     55   LAYER   1   ROW     4   COL    10   RATE     760.000    
 BOUNDARY     56   LAYER   1   ROW     4   COL    11   RATE     760.000    
 BOUNDARY     57   LAYER   1   ROW     4   COL    12   RATE     760.000    
 BOUNDARY     58   LAYER   1   ROW     4   COL    13   RATE     760.000    
 BOUNDARY     59   LAYER   1   ROW     4   COL    14   RATE     760.000    
 BOUNDARY     60   LAYER   1   ROW     4   COL    15   RATE     760.000    
 BOUNDARY     61   LAYER   1   ROW     5   COL     1   RATE     760.000    
 BOUNDARY     62   LAYER   1   ROW     5   COL     2   RATE     760.000    
 BOUNDARY     63   LAYER   1   ROW     5   COL     3   RATE     760.000    
 BOUNDARY     64   LAYER   1   ROW     5   COL     4   RATE     760.000    
 BOUNDARY     65   LAYER   1   ROW     5   COL     5   RATE     760.000    
 BOUNDARY     66   LAYER   1   ROW     5   COL     6   RATE     760.000    
 BOUNDARY     67   LAYER   1   ROW     5   COL     7   RATE     760.000    
 BOUNDARY     68   LAYER   1   ROW     5   COL     8   RATE     760.000    
 BOUNDARY     69   LAYER   1   ROW     5   COL     9   RATE     760.000    
 BOUNDARY     70   LAYER   1   ROW     5   COL    10   RATE     760.000    
 BOUNDARY     71   LAYER   1   ROW     5   COL    11   RATE     760.000    
 BOUNDARY     72   LAYER   1   ROW     5   COL    12   RATE     760.000    
 BOUNDARY     73   LAYER   1   ROW     5   COL    13   RATE     760.000    
 BOUNDARY     74   LAYER   1   ROW     5   COL    14   RATE     760.000    
 BOUNDARY     75   LAYER   1   ROW     5   COL    15   RATE     760.000    
 BOUNDARY     76   LAYER   1   ROW     6   COL     1   RATE     760.000    
 BOUNDARY     77   LAYER   1   ROW     6   COL     2   RATE     760.000    
 BOUNDARY     78   LAYER   1   ROW     6   COL     3   RATE     760.000    
 BOUNDARY     79   LAYER   1   ROW     6   COL     4   RATE     760.000    
 BOUNDARY     80   LAYER   1   ROW     6   COL     5   RATE     760.000    
 BOUNDARY     81   LAYER   1   ROW     6   COL     6   RATE     760.000    
 BOUNDARY     82   LAYER   1   ROW     6   COL     7   RATE     760.000    
 BOUNDARY     83   LAYER   1   ROW     6   COL     8   RATE     760.000    
 BOUNDARY     84   LAYER   1   ROW     6   COL     9   RATE     760.000    
 BOUNDARY     85   LAYER   1   ROW     6   COL    10   RATE     760.000    
 BOUNDARY     86   LAYER   1   ROW     6   COL    11   RATE     760.000    
 BOUNDARY     87   LAYER   1   ROW     6   COL    12   RATE     760.000    
 BOUNDARY     88   LAYER   1   ROW     6   COL    13   RATE     760.000    
 BOUNDARY     89   LAYER   1   ROW     6   COL    14   RATE     760.000    
 BOUNDARY     90   LAYER   1   ROW     6   COL    15   RATE     760.000    
 BOUNDARY     91   LAYER   1   ROW     7   COL     1   RATE     760.000    
 BOUNDARY     92   LAYER   1   ROW     7   COL     2   RATE     760.000    
 BOUNDARY     93   LAYER   1   ROW     7   COL     3   RATE     760.000    
 BOUNDARY     94   LAYER   1   ROW     7   COL     4   RATE     760.000    
 BOUNDARY     95   LAYER   1   ROW     7   COL     5   RATE     760.000    
 BOUNDARY     96   LAYER   1   ROW     7   COL     6   RATE     760.000    
 BOUNDARY     97   LAYER   1   ROW     7   COL     7   RATE     760.000    
 BOUNDARY     98   LAYER   1   ROW     7   COL     8   RATE     760.000    
 BOUNDARY     99   LAYER   1   ROW     7   COL     9   RATE     760.000    
 BOUNDARY    100   LAYER   1   ROW     7   COL    10   RATE     760.000    
 BOUNDARY    101   LAYER   1   ROW     7   COL    11   RATE     760.000    
 BOUNDARY    102   LAYER   1   ROW     7   COL    12   RATE     760.000    
 BOUNDARY    103   LAYER   1   ROW     7   COL    13   RATE     760.000    
 BOUNDARY    104   LAYER   1   ROW     7   COL    14   RATE     760.000    
 BOUNDARY    105   LAYER   1   ROW     7   COL    15   RATE     760.000    
 BOUNDARY    106   LAYER   1   ROW     8   COL     1   RATE     760.000    
 BOUNDARY    107   LAYER   1   ROW     8   COL     2   RATE     760.000    
 BOUNDARY    108   LAYER   1   ROW     8   COL     3   RATE     760.000    
 BOUNDARY    109   LAYER   1   ROW     8   COL     4   RATE     760.000    
 BOUNDARY    110   LAYER   1   ROW     8   COL     5   RATE     760.000    
 BOUNDARY    111   LAYER   1   ROW     8   COL     6   RATE     760.000    
 BOUNDARY    112   LAYER   1   ROW     8   COL     7   RATE     760.000    
 BOUNDARY    113   LAYER   1   ROW     8   COL     8   RATE     760.000    
 BOUNDARY    114   LAYER   1   ROW     8   COL     9   RATE     760.000    
 BOUNDARY    115   LAYER   1   ROW     8   COL    10   RATE     760.000    
 BOUNDARY    116   LAYER   1   ROW     8   COL    11   RATE     760.000    
 BOUNDARY    117   LAYER   1   ROW     8   COL    12   RATE     760.000    
 BOUNDARY    118   LAYER   1   ROW     8   COL    13   RATE     760.000    
 BOUNDARY    119   LAYER   1   ROW     8   COL    14   RATE     760.000    
 BOUNDARY    120   LAYER   1   ROW     8   COL    15   RATE     760.000    
 BOUNDARY    121   LAYER   1   ROW     9   COL     1   RATE     760.000    
 BOUNDARY    122   LAYER   1   ROW     9   COL     2   RATE     760.000    
 BOUNDARY    123   LAYER   1   ROW     9   COL     3   RATE     760.000    
 BOUNDARY    124   LAYER   1   ROW     9   COL     4   RATE     760.000    
 BOUNDARY    125   LAYER   1   ROW     9   COL     5   RATE     760.000    
 BOUNDARY    126   LAYER   1   ROW     9   COL     6   RATE     760.000    
 BOUNDARY    127   LAYER   1   ROW     9   COL     7   RATE     760.000    
 BOUNDARY    128   LAYER   1   ROW     9   COL     8   RATE     760.000    
 BOUNDARY    129   LAYER   1   ROW     9   COL     9   RATE     760.000    
 BOUNDARY    130   LAYER   1   ROW     9   COL    10   RATE     760.000    
 BOUNDARY    131   LAYER   1   ROW     9   COL    11   RATE     760.000    
 BOUNDARY    132   LAYER   1   ROW     9   COL    12   RATE     760.000    
 BOUNDARY    133   LAYER   1   ROW     9   COL    13   RATE     760.000    
 BOUNDARY    134   LAYER   1   ROW     9   COL    14   RATE     760.000    
 BOUNDARY    135   LAYER   1   ROW     9   COL    15   RATE     760.000    
 BOUNDARY    136   LAYER   1   ROW    10   COL     1   RATE     760.000    
 BOUNDARY    137   LAYER   1   ROW    10   COL     2   RATE     760.000    
 BOUNDARY    138   LAYER   1   ROW    10   COL     3   RATE     760.000    
 BOUNDARY    139   LAYER   1   ROW    10   COL     4   RATE     760.000    
 BOUNDARY    140   LAYER   1   ROW    10   COL     5   RATE     760.000    
 BOUNDARY    141   LAYER   1   ROW    10   COL     6   RATE     760.000    
 BOUNDARY    142   LAYER   1   ROW    10   COL     7   RATE     760.000    
 BOUNDARY    143   LAYER   1   ROW    10   COL     8   RATE     760.000    
 BOUNDARY    144   LAYER   1   ROW    10   COL     9   RATE     760.000    
 BOUNDARY    145   LAYER   1   ROW    10   COL    10   RATE     760.000    
 BOUNDARY    146   LAYER   1   ROW    10   COL    11   RATE     760.000    
 BOUNDARY    147   LAYER   1   ROW    10   COL    12   RATE     760.000    
 BOUNDARY    148   LAYER   1   ROW    10   COL    13   RATE     760.000    
 BOUNDARY    149   LAYER   1   ROW    10   COL    14   RATE     760.000    
 BOUNDARY    150   LAYER   1   ROW    10   COL    15   RATE     760.000    
 UBDSV4 SAVING ET SEGS          ON UNIT   1016 AT TIME STEP     10, STRESS PERIOD      5

 ET SEGS            PERIOD  5   STEP 10
 BOUNDARY      1   LAYER   1   ROW     1   COL     1   RATE    -3.09458    
 BOUNDARY      2   LAYER   1   ROW     1   COL     2   RATE    -10.2642    
 BOUNDARY      3   LAYER   1   ROW     1   COL     3   RATE    -66.6555    
 BOUNDARY      4   LAYER   1   ROW     1   COL     4   RATE    -104.375    
 BOUNDARY      5   LAYER   1   ROW     1   COL     5   RATE    -104.375    
 BOUNDARY      6   LAYER   1   ROW     1   COL     6   RATE    -104.375    
 BOUNDARY      7   LAYER   1   ROW     1   COL     7   RATE    -104.375    
 BOUNDARY      8   LAYER   1   ROW     1   COL     8   RATE    -104.375    
 BOUNDARY      9   LAYER   1   ROW     1   COL     9   RATE    -104.375    
 BOUNDARY     10   LAYER   1   ROW     1   COL    10   RATE    -104.375    
 BOUNDARY     11   LAYER   1   ROW     1   COL    11   RATE    -104.375    
 BOUNDARY     12   LAYER   1   ROW     1   COL    12   RATE    -20.5812    
 BOUNDARY     13   LAYER   1   ROW     1   COL    13   RATE     0.00000    
 BOUNDARY     14   LAYER   1   ROW     1   COL    14   RATE     0.00000    
 BOUNDARY     15   LAYER   1   ROW     1   COL    15   RATE     0.00000    
 BOUNDARY     16   LAYER   1   ROW     2   COL     1   RATE     0.00000    
 BOUNDARY     17   LAYER   1   ROW     2   COL     2   RATE    -5.53111    
 BOUNDARY     18   LAYER   1   ROW     2   COL     3   RATE    -37.2533    
 BOUNDARY     19   LAYER   1   ROW     2   COL     4   RATE    -104.375    
 BOUNDARY     20   LAYER   1   ROW     2   COL     5   RATE    -104.375    
 BOUNDARY     21   LAYER   1   ROW     2   COL     6   RATE    -104.375    
 BOUNDARY     22   LAYER   1   ROW     2   COL     7   RATE    -104.375    
 BOUNDARY     23   LAYER   1   ROW     2   COL     8   RATE    -104.375    
 BOUNDARY     24   LAYER   1   ROW     2   COL     9   RATE    -104.375    
 BOUNDARY     25   LAYER   1   ROW     2   COL    10   RATE    -104.375    
 BOUNDARY     26   LAYER   1   ROW     2   COL    11   RATE    -104.375    
 BOUNDARY     27   LAYER   1   ROW     2   COL    12   RATE    -22.4013    
 BOUNDARY     28   LAYER   1   ROW     2   COL    13   RATE    -1.00431    
 BOUNDARY     29   LAYER   1   ROW     2   COL    14   RATE     0.00000    
 BOUNDARY     30   LAYER   1   ROW     2   COL    15   RATE     0.00000    
 BOUNDARY     31   LAYER   1   ROW     3   COL     1   RATE     0.00000    
 BOUNDARY     32   LAYER   1   ROW     3   COL     2   RATE     0.00000    
 BOUNDARY     33   LAYER   1   ROW     3   COL     3   RATE    -26.2013    
 BOUNDARY     34   LAYER   1   ROW     3   COL     4   RATE    -104.375    
 BOUNDARY     35   LAYER   1   ROW     3   COL     5   RATE    -104.375    
 BOUNDARY     36   LAYER   1   ROW     3   COL     6   RATE    -104.375    
 BOUNDARY     37   LAYER   1   ROW     3   COL     7   RATE    -104.375    
 BOUNDARY     38   LAYER   1   ROW     3   COL     8   RATE    -104.375    
 BOUNDARY     39   LAYER   1   ROW     3   COL     9   RATE    -104.375    
 BOUNDARY     40   LAYER   1   ROW     3   COL    10   RATE    -104.375    
 BOUNDARY     41   LAYER   1   ROW     3   COL    11   RATE    -104.375    
 BOUNDARY     42   LAYER   1   ROW     3   COL    12   RATE    -25.4690    
 BOUNDARY     43   LAYER   1   ROW     3   COL    13   RATE    -2.87803    
 BOUNDARY     44   LAYER   1   ROW     3   COL    14   RATE     0.00000    
 BOUNDARY     45   LAYER   1   ROW     3   COL    15   RATE     0.00000    
 BOUNDARY     46   LAYER   1   ROW     4   COL     1   RATE     0.00000    
 BOUNDARY     47   LAYER   1   ROW     4   COL     2   RATE    -3.95566    
 BOUNDARY     48   LAYER   1   ROW     4   COL     3   RATE    -30.2705    
 BOUNDARY     49   LAYER   1   ROW     4   COL     4   RATE    -104.375    
 BOUNDARY     50   LAYER   1   ROW     4   COL     5   RATE    -104.375    
 BOUNDARY     51   LAYER   1   ROW     4   COL     6   RATE    -104.375    
 BOUNDARY     52   LAYER   1   ROW     4   COL     7   RATE    -104.375    
 BOUNDARY     53   LAYER   1   ROW     4   COL     8   RATE    -104.375    
 BOUNDARY     54   LAYER   1   ROW     4   COL     9   RATE    -104.375    
 BOUNDARY     55   LAYER   1   ROW     4   COL    10   RATE    -104.375    
 BOUNDARY     56   LAYER   1   ROW     4   COL    11   RATE    -104.375    
 BOUNDARY     57   LAYER   1   ROW     4   COL    12   RATE    -28.3790    
 BOUNDARY     58   LAYER   1   ROW     4   COL    13   RATE    -4.39267    
 BOUNDARY     59   LAYER   1   ROW     4   COL    14   RATE     0.00000    
 BOUNDARY     60   LAYER   1   ROW     4   COL    15   RATE     0.00000    
 BOUNDARY     61   LAYER   1   ROW     5   COL     1   RATE     0.00000    
 BOUNDARY     62   LAYER   1   ROW     5   COL     2   RATE    -7.07125    
 BOUNDARY     63   LAYER   1   ROW     5   COL     3   RATE    -47.5533    
 BOUNDARY     64   LAYER   1   ROW     5   COL     4   RATE    -104.375    
 BOUNDARY     65   LAYER   1   ROW     5   COL     5   RATE    -104.375    
 BOUNDARY     66   LAYER   1   ROW     5   COL     6   RATE    -104.375    
 BOUNDARY     67   LAYER   1   ROW     5   COL     7   RATE    -104.375    
 BOUNDARY     68   LAYER   1   ROW     5   COL     8   RATE    -104.375    
 BOUNDARY     69   LAYER   1   ROW     5   COL     9   RATE    -104.375    
 BOUNDARY     70   LAYER   1   ROW     5   COL    10   RATE    -104.375    
 BOUNDARY     71   LAYER   1   ROW     5   COL    11   RATE    -104.375    
 BOUNDARY     72   LAYER   1   ROW     5   COL    12   RATE    -30.3768    
 BOUNDARY     73   LAYER   1   ROW     5   COL    13   RATE    -5.31386    
 BOUNDARY     74   LAYER   1   ROW     5   COL    14   RATE     0.00000    
 BOUNDARY     75   LAYER   1   ROW     5   COL    15   RATE     0.00000    
 BOUNDARY     76   LAYER   1   ROW     6   COL     1   RATE     0.00000    
 BOUNDARY     77   LAYER   1   ROW     6   COL     2   RATE    -5.56295    
 BOUNDARY     78   LAYER   1   ROW     6   COL     3   RATE    -51.5371    
 BOUNDARY     79   LAYER   1   ROW     6   COL     4   RATE    -104.375    
 BOUNDARY     80   LAYER   1   ROW     6   COL     5   RATE    -104.375    
 BOUNDARY     81   LAYER   1   ROW     6   COL     6   RATE    -104.375    
 BOUNDARY     82   LAYER   1   ROW     6   COL     7   RATE    -104.375    
 BOUNDARY     83   LAYER   1   ROW     6   COL     8   RATE    -104.375    
 BOUNDARY     84   LAYER   1   ROW     6   COL     9   RATE    -104.375    
 BOUNDARY     85   LAYER   1   ROW     6   COL    10   RATE    -104.375    
 BOUNDARY     86   LAYER   1   ROW     6   COL    11   RATE    -104.375    
 BOUNDARY     87   LAYER   1   ROW     6   COL    12   RATE    -31.0480    
 BOUNDARY     88   LAYER   1   ROW     6   COL    13   RATE    -5.26256    
 BOUNDARY     89   LAYER   1   ROW     6   COL    14   RATE     0.00000    
 BOUNDARY     90   LAYER   1   ROW     6   COL    15   RATE     0.00000    
 BOUNDARY     91   LAYER   1   ROW     7   COL     1   RATE     0.00000    
 BOUNDARY     92   LAYER   1   ROW     7   COL     2   RATE    -1.86773    
 BOUNDARY     93   LAYER   1   ROW     7   COL     3   RATE    -58.7492    
 BOUNDARY     94   LAYER   1   ROW     7   COL     4   RATE    -104.375    
 BOUNDARY     95   LAYER   1   ROW     7   COL     5   RATE    -104.375    
 BOUNDARY     96   LAYER   1   ROW     7   COL     6   RATE    -104.375    
 BOUNDARY     97   LAYER   1   ROW     7   COL     7   RATE    -104.375    
 BOUNDARY     98   LAYER   1   ROW     7   COL     8   RATE    -104.375    
 BOUNDARY     99   LAYER   1   ROW     7   COL     9   RATE    -104.375    
 BOUNDARY    100   LAYER   1   ROW     7   COL    10   RATE    -104.375    
 BOUNDARY    101   LAYER   1   ROW     7   COL    11   RATE    -104.375    
 BOUNDARY    102   LAYER   1   ROW     7   COL    12   RATE    -30.8982    
 BOUNDARY    103   LAYER   1   ROW     7   COL    13   RATE    -4.51501    
 BOUNDARY    104   LAYER   1   ROW     7   COL    14   RATE     0.00000    
 BOUNDARY    105   LAYER   1   ROW     7   COL    15   RATE     0.00000    
 BOUNDARY    106   LAYER   1   ROW     8   COL     1   RATE     0.00000    
 BOUNDARY    107   LAYER   1   ROW     8   COL     2   RATE    -14.6599    
 BOUNDARY    108   LAYER   1   ROW     8   COL     3   RATE    -104.375    
 BOUNDARY    109   LAYER   1   ROW     8   COL     4   RATE    -104.375    
 BOUNDARY    110   LAYER   1   ROW     8   COL     5   RATE    -104.375    
 BOUNDARY    111   LAYER   1   ROW     8   COL     6   RATE    -104.375    
 BOUNDARY    112   LAYER   1   ROW     8   COL     7   RATE    -104.375    
 BOUNDARY    113   LAYER   1   ROW     8   COL     8   RATE    -104.375    
 BOUNDARY    114   LAYER   1   ROW     8   COL     9   RATE    -104.375    
 BOUNDARY    115   LAYER   1   ROW     8   COL    10   RATE    -104.375    
 BOUNDARY    116   LAYER   1   ROW     8   COL    11   RATE    -104.375    
 BOUNDARY    117   LAYER   1   ROW     8   COL    12   RATE    -31.4444    
 BOUNDARY    118   LAYER   1   ROW     8   COL    13   RATE    -4.55050    
 BOUNDARY    119   LAYER   1   ROW     8   COL    14   RATE     0.00000    
 BOUNDARY    120   LAYER   1   ROW     8   COL    15   RATE     0.00000    
 BOUNDARY    121   LAYER   1   ROW     9   COL     1   RATE    -22.6003    
 BOUNDARY    122   LAYER   1   ROW     9   COL     2   RATE    -78.9004    
 BOUNDARY    123   LAYER   1   ROW     9   COL     3   RATE    -104.375    
 BOUNDARY    124   LAYER   1   ROW     9   COL     4   RATE    -104.375    
 BOUNDARY    125   LAYER   1   ROW     9   COL     5   RATE    -104.375    
 BOUNDARY    126   LAYER   1   ROW     9   COL     6   RATE    -104.375    
 BOUNDARY    127   LAYER   1   ROW     9   COL     7   RATE    -104.375    
 BOUNDARY    128   LAYER   1   ROW     9   COL     8   RATE    -104.375    
 BOUNDARY    129   LAYER   1   ROW     9   COL     9   RATE    -104.375    
 BOUNDARY    130   LAYER   1   ROW     9   COL    10   RATE    -104.375    
 BOUNDARY    131   LAYER   1   ROW     9   COL    11   RATE    -104.375    
 BOUNDARY    132   LAYER   1   ROW     9   COL    12   RATE    -37.6334    
 BOUNDARY    133   LAYER   1   ROW     9   COL    13   RATE    -5.44981    
 BOUNDARY    134   LAYER   1   ROW     9   COL    14   RATE     0.00000    
 BOUNDARY    135   LAYER   1   ROW     9   COL    15   RATE     0.00000    
 BOUNDARY    136   LAYER   1   ROW    10   COL     1   RATE    -87.4260    
 BOUNDARY    137   LAYER   1   ROW    10   COL     2   RATE    -104.375    
 BOUNDARY    138   LAYER   1   ROW    10   COL     3   RATE    -104.375    
 BOUNDARY    139   LAYER   1   ROW    10   COL     4   RATE    -104.375    
 BOUNDARY    140   LAYER   1   ROW    10   COL     5   RATE    -104.375    
 BOUNDARY    141   LAYER   1   ROW    10   COL     6   RATE    -104.375    
 BOUNDARY    142   LAYER   1   ROW    10   COL     7   RATE    -104.375    
 BOUNDARY    143   LAYER   1   ROW    10   COL     8   RATE    -104.375    
 BOUNDARY    144   LAYER   1   ROW    10   COL     9   RATE    -104.375    
 BOUNDARY    145   LAYER   1   ROW    10   COL    10   RATE    -104.375    
 BOUNDARY    146   LAYER   1   ROW    10   COL    11   RATE    -104.375    
 BOUNDARY    147   LAYER   1   ROW    10   COL    12   RATE    -42.0478    
 BOUNDARY    148   LAYER   1   ROW    10   COL    13   RATE    -6.02261    
 BOUNDARY    149   LAYER   1   ROW    10   COL    14   RATE     0.00000    
 BOUNDARY    150   LAYER   1   ROW    10   COL    15   RATE     0.00000    

 HEAD WILL BE SAVED ON UNIT 1017 AT END OF TIME STEP   10, STRESS PERIOD    5
WEL   no.    1 value from time series:   0.0000     for time:  101.0     to  102.0    
WEL   no.    2 value from time series:   0.0000     for time:  101.0     to  102.0    
RIV   no.    1 value from time series:   101.00     for time:  101.0     to  102.0    
RIV   no.    2 value from time series:   101.00     for time:  101.0     to  102.0    
RIV   no.    3 value from time series:   111.50     for time:  101.0     to  102.0    
RIV   no.    4 value from time series:   111.50     for time:  101.0     to  102.0    
RIV   no.    5 value from time series:   115.10     for time:  101.0     to  102.0    
RIV   no.    6 value from time series:   115.10     for time:  101.0     to  102.0    
RIV   no.    7 value from time series:   104.00     for time:  101.0     to  102.0    
RIV   no.    8 value from time series:   104.00     for time:  101.0     to  102.0    
RIV   no.    9 value from time series:   113.50     for time:  101.0     to  102.0    
RIV   no.   10 value from time series:   113.50     for time:  101.0     to  102.0    
WEL   no.    1 value from time series:   0.0000     for time:  101.0     to  102.0    
WEL   no.    2 value from time series:   0.0000     for time:  101.0     to  102.0    
RIV   no.    1 value from time series:   101.00     for time:  101.0     to  102.0    
RIV   no.    2 value from time series:   101.00     for time:  101.0     to  102.0    
RIV   no.    3 value from time series:   111.50     for time:  101.0     to  102.0    
RIV   no.    4 value from time series:   111.50     for time:  101.0     to  102.0    
RIV   no.    5 value from time series:   115.10     for time:  101.0     to  102.0    
RIV   no.    6 value from time series:   115.10     for time:  101.0     to  102.0    
RIV   no.    7 value from time series:   104.00     for time:  101.0     to  102.0    
RIV   no.    8 value from time series:   104.00     for time:  101.0     to  102.0    
RIV   no.    9 value from time series:   113.50     for time:  101.0     to  102.0    
RIV   no.   10 value from time series:   113.50     for time:  101.0     to  102.0    

 NO OUTPUT CONTROL FOR STRESS PERIOD    5   TIME STEP   11
WEL   no.    1 value from time series:   0.0000     for time:  102.0     to  103.0    
WEL   no.    2 value from time series:   0.0000     for time:  102.0     to  103.0    
RIV   no.    1 value from time series:   101.00     for time:  102.0     to  103.0    
RIV   no.    2 value from time series:   101.00     for time:  102.0     to  103.0    
RIV   no.    3 value from time series:   111.50     for time:  102.0     to  103.0    
RIV   no.    4 value from time series:   111.50     for time:  102.0     to  103.0    
RIV   no.    5 value from time series:   115.10     for time:  102.0     to  103.0    
RIV   no.    6 value from time series:   115.10     for time:  102.0     to  103.0    
RIV   no.    7 value from time series:   104.00     for time:  102.0     to  103.0    
RIV   no.    8 value from time series:   104.00     for time:  102.0     to  103.0    
RIV   no.    9 value from time series:   113.50     for time:  102.0     to  103.0    
RIV   no.   10 value from time series:   113.50     for time:  102.0     to  103.0    
WEL   no.    1 value from time series:   0.0000     for time:  102.0     to  103.0    
WEL   no.    2 value from time series:   0.0000     for time:  102.0     to  103.0    
RIV   no.    1 value from time series:   101.00     for time:  102.0     to  103.0    
RIV   no.    2 value from time series:   101.00     for time:  102.0     to  103.0    
RIV   no.    3 value from time series:   111.50     for time:  102.0     to  103.0    
RIV   no.    4 value from time series:   111.50     for time:  102.0     to  103.0    
RIV   no.    5 value from time series:   115.10     for time:  102.0     to  103.0    
RIV   no.    6 value from time series:   115.10     for time:  102.0     to  103.0    
RIV   no.    7 value from time series:   104.00     for time:  102.0     to  103.0    
RIV   no.    8 value from time series:   104.00     for time:  102.0     to  103.0    
RIV   no.    9 value from time series:   113.50     for time:  102.0     to  103.0    
RIV   no.   10 value from time series:   113.50     for time:  102.0     to  103.0    

 NO OUTPUT CONTROL FOR STRESS PERIOD    5   TIME STEP   12
WEL   no.    1 value from time series:   0.0000     for time:  103.0     to  104.0    
WEL   no.    2 value from time series:   0.0000     for time:  103.0     to  104.0    
RIV   no.    1 value from time series:   101.00     for time:  103.0     to  104.0    
RIV   no.    2 value from time series:   101.00     for time:  103.0     to  104.0    
RIV   no.    3 value from time series:   111.50     for time:  103.0     to  104.0    
RIV   no.    4 value from time series:   111.50     for time:  103.0     to  104.0    
RIV   no.    5 value from time series:   115.10     for time:  103.0     to  104.0    
RIV   no.    6 value from time series:   115.10     for time:  103.0     to  104.0    
RIV   no.    7 value from time series:   104.00     for time:  103.0     to  104.0    
RIV   no.    8 value from time series:   104.00     for time:  103.0     to  104.0    
RIV   no.    9 value from time series:   113.50     for time:  103.0     to  104.0    
RIV   no.   10 value from time series:   113.50     for time:  103.0     to  104.0    
WEL   no.    1 value from time series:   0.0000     for time:  103.0     to  104.0    
WEL   no.    2 value from time series:   0.0000     for time:  103.0     to  104.0    
RIV   no.    1 value from time series:   101.00     for time:  103.0     to  104.0    
RIV   no.    2 value from time series:   101.00     for time:  103.0     to  104.0    
RIV   no.    3 value from time series:   111.50     for time:  103.0     to  104.0    
RIV   no.    4 value from time series:   111.50     for time:  103.0     to  104.0    
RIV   no.    5 value from time series:   115.10     for time:  103.0     to  104.0    
RIV   no.    6 value from time series:   115.10     for time:  103.0     to  104.0    
RIV   no.    7 value from time series:   104.00     for time:  103.0     to  104.0    
RIV   no.    8 value from time series:   104.00     for time:  103.0     to  104.0    
RIV   no.    9 value from time series:   113.50     for time:  103.0     to  104.0    
RIV   no.   10 value from time series:   113.50     for time:  103.0     to  104.0    

 NO OUTPUT CONTROL FOR STRESS PERIOD    5   TIME STEP   13
WEL   no.    1 value from time series:   0.0000     for time:  104.0     to  105.0    
WEL   no.    2 value from time series:   0.0000     for time:  104.0     to  105.0    
RIV   no.    1 value from time series:   101.00     for time:  104.0     to  105.0    
RIV   no.    2 value from time series:   101.00     for time:  104.0     to  105.0    
RIV   no.    3 value from time series:   111.50     for time:  104.0     to  105.0    
RIV   no.    4 value from time series:   111.50     for time:  104.0     to  105.0    
RIV   no.    5 value from time series:   115.10     for time:  104.0     to  105.0    
RIV   no.    6 value from time series:   115.10     for time:  104.0     to  105.0    
RIV   no.    7 value from time series:   104.00     for time:  104.0     to  105.0    
RIV   no.    8 value from time series:   104.00     for time:  104.0     to  105.0    
RIV   no.    9 value from time series:   113.50     for time:  104.0     to  105.0    
RIV   no.   10 value from time series:   113.50     for time:  104.0     to  105.0    
WEL   no.    1 value from time series:   0.0000     for time:  104.0     to  105.0    
WEL   no.    2 value from time series:   0.0000     for time:  104.0     to  105.0    
RIV   no.    1 value from time series:   101.00     for time:  104.0     to  105.0    
RIV   no.    2 value from time series:   101.00     for time:  104.0     to  105.0    
RIV   no.    3 value from time series:   111.50     for time:  104.0     to  105.0    
RIV   no.    4 value from time series:   111.50     for time:  104.0     to  105.0    
RIV   no.    5 value from time series:   115.10     for time:  104.0     to  105.0    
RIV   no.    6 value from time series:   115.10     for time:  104.0     to  105.0    
RIV   no.    7 value from time series:   104.00     for time:  104.0     to  105.0    
RIV   no.    8 value from time series:   104.00     for time:  104.0     to  105.0    
RIV   no.    9 value from time series:   113.50     for time:  104.0     to  105.0    
RIV   no.   10 value from time series:   113.50     for time:  104.0     to  105.0    

 NO OUTPUT CONTROL FOR STRESS PERIOD    5   TIME STEP   14
WEL   no.    1 value from time series:   0.0000     for time:  105.0     to  106.0    
WEL   no.    2 value from time series:   0.0000     for time:  105.0     to  106.0    
RIV   no.    1 value from time series:   101.00     for time:  105.0     to  106.0    
RIV   no.    2 value from time series:   101.00     for time:  105.0     to  106.0    
RIV   no.    3 value from time series:   111.50     for time:  105.0     to  106.0    
RIV   no.    4 value from time series:   111.50     for time:  105.0     to  106.0    
RIV   no.    5 value from time series:   115.10     for time:  105.0     to  106.0    
RIV   no.    6 value from time series:   115.10     for time:  105.0     to  106.0    
RIV   no.    7 value from time series:   104.00     for time:  105.0     to  106.0    
RIV   no.    8 value from time series:   104.00     for time:  105.0     to  106.0    
RIV   no.    9 value from time series:   113.50     for time:  105.0     to  106.0    
RIV   no.   10 value from time series:   113.50     for time:  105.0     to  106.0    
WEL   no.    1 value from time series:   0.0000     for time:  105.0     to  106.0    
WEL   no.    2 value from time series:   0.0000     for time:  105.0     to  106.0    
RIV   no.    1 value from time series:   101.00     for time:  105.0     to  106.0    
RIV   no.    2 value from time series:   101.00     for time:  105.0     to  106.0    
RIV   no.    3 value from time series:   111.50     for time:  105.0     to  106.0    
RIV   no.    4 value from time series:   111.50     for time:  105.0     to  106.0    
RIV   no.    5 value from time series:   115.10     for time:  105.0     to  106.0    
RIV   no.    6 value from time series:   115.10     for time:  105.0     to  106.0    
RIV   no.    7 value from time series:   104.00     for time:  105.0     to  106.0    
RIV   no.    8 value from time series:   104.00     for time:  105.0     to  106.0    
RIV   no.    9 value from time series:   113.50     for time:  105.0     to  106.0    
RIV   no.   10 value from time series:   113.50     for time:  105.0     to  106.0    

 NO OUTPUT CONTROL FOR STRESS PERIOD    5   TIME STEP   15
WEL   no.    1 value from time series:   0.0000     for time:  106.0     to  107.0    
WEL   no.    2 value from time series:   0.0000     for time:  106.0     to  107.0    
RIV   no.    1 value from time series:   101.00     for time:  106.0     to  107.0    
RIV   no.    2 value from time series:   101.00     for time:  106.0     to  107.0    
RIV   no.    3 value from time series:   111.50     for time:  106.0     to  107.0    
RIV   no.    4 value from time series:   111.50     for time:  106.0     to  107.0    
RIV   no.    5 value from time series:   115.10     for time:  106.0     to  107.0    
RIV   no.    6 value from time series:   115.10     for time:  106.0     to  107.0    
RIV   no.    7 value from time series:   104.00     for time:  106.0     to  107.0    
RIV   no.    8 value from time series:   104.00     for time:  106.0     to  107.0    
RIV   no.    9 value from time series:   113.50     for time:  106.0     to  107.0    
RIV   no.   10 value from time series:   113.50     for time:  106.0     to  107.0    
WEL   no.    1 value from time series:   0.0000     for time:  106.0     to  107.0    
WEL   no.    2 value from time series:   0.0000     for time:  106.0     to  107.0    
RIV   no.    1 value from time series:   101.00     for time:  106.0     to  107.0    
RIV   no.    2 value from time series:   101.00     for time:  106.0     to  107.0    
RIV   no.    3 value from time series:   111.50     for time:  106.0     to  107.0    
RIV   no.    4 value from time series:   111.50     for time:  106.0     to  107.0    
RIV   no.    5 value from time series:   115.10     for time:  106.0     to  107.0    
RIV   no.    6 value from time series:   115.10     for time:  106.0     to  107.0    
RIV   no.    7 value from time series:   104.00     for time:  106.0     to  107.0    
RIV   no.    8 value from time series:   104.00     for time:  106.0     to  107.0    
RIV   no.    9 value from time series:   113.50     for time:  106.0     to  107.0    
RIV   no.   10 value from time series:   113.50     for time:  106.0     to  107.0    

 NO OUTPUT CONTROL FOR STRESS PERIOD    5   TIME STEP   16
WEL   no.    1 value from time series:   0.0000     for time:  107.0     to  108.0    
WEL   no.    2 value from time series:   0.0000     for time:  107.0     to  108.0    
RIV   no.    1 value from time series:   101.00     for time:  107.0     to  108.0    
RIV   no.    2 value from time series:   101.00     for time:  107.0     to  108.0    
RIV   no.    3 value from time series:   111.50     for time:  107.0     to  108.0    
RIV   no.    4 value from time series:   111.50     for time:  107.0     to  108.0    
RIV   no.    5 value from time series:   115.10     for time:  107.0     to  108.0    
RIV   no.    6 value from time series:   115.10     for time:  107.0     to  108.0    
RIV   no.    7 value from time series:   104.00     for time:  107.0     to  108.0    
RIV   no.    8 value from time series:   104.00     for time:  107.0     to  108.0    
RIV   no.    9 value from time series:   113.50     for time:  107.0     to  108.0    
RIV   no.   10 value from time series:   113.50     for time:  107.0     to  108.0    
WEL   no.    1 value from time series:   0.0000     for time:  107.0     to  108.0    
WEL   no.    2 value from time series:   0.0000     for time:  107.0     to  108.0    
RIV   no.    1 value from time series:   101.00     for time:  107.0     to  108.0    
RIV   no.    2 value from time series:   101.00     for time:  107.0     to  108.0    
RIV   no.    3 value from time series:   111.50     for time:  107.0     to  108.0    
RIV   no.    4 value from time series:   111.50     for time:  107.0     to  108.0    
RIV   no.    5 value from time series:   115.10     for time:  107.0     to  108.0    
RIV   no.    6 value from time series:   115.10     for time:  107.0     to  108.0    
RIV   no.    7 value from time series:   104.00     for time:  107.0     to  108.0    
RIV   no.    8 value from time series:   104.00     for time:  107.0     to  108.0    
RIV   no.    9 value from time series:   113.50     for time:  107.0     to  108.0    
RIV   no.   10 value from time series:   113.50     for time:  107.0     to  108.0    

 NO OUTPUT CONTROL FOR STRESS PERIOD    5   TIME STEP   17
WEL   no.    1 value from time series:   0.0000     for time:  108.0     to  109.0    
WEL   no.    2 value from time series:   0.0000     for time:  108.0     to  109.0    
RIV   no.    1 value from time series:   101.00     for time:  108.0     to  109.0    
RIV   no.    2 value from time series:   101.00     for time:  108.0     to  109.0    
RIV   no.    3 value from time series:   111.50     for time:  108.0     to  109.0    
RIV   no.    4 value from time series:   111.50     for time:  108.0     to  109.0    
RIV   no.    5 value from time series:   115.10     for time:  108.0     to  109.0    
RIV   no.    6 value from time series:   115.10     for time:  108.0     to  109.0    
RIV   no.    7 value from time series:   104.00     for time:  108.0     to  109.0    
RIV   no.    8 value from time series:   104.00     for time:  108.0     to  109.0    
RIV   no.    9 value from time series:   113.50     for time:  108.0     to  109.0    
RIV   no.   10 value from time series:   113.50     for time:  108.0     to  109.0    
WEL   no.    1 value from time series:   0.0000     for time:  108.0     to  109.0    
WEL   no.    2 value from time series:   0.0000     for time:  108.0     to  109.0    
RIV   no.    1 value from time series:   101.00     for time:  108.0     to  109.0    
RIV   no.    2 value from time series:   101.00     for time:  108.0     to  109.0    
RIV   no.    3 value from time series:   111.50     for time:  108.0     to  109.0    
RIV   no.    4 value from time series:   111.50     for time:  108.0     to  109.0    
RIV   no.    5 value from time series:   115.10     for time:  108.0     to  109.0    
RIV   no.    6 value from time series:   115.10     for time:  108.0     to  109.0    
RIV   no.    7 value from time series:   104.00     for time:  108.0     to  109.0    
RIV   no.    8 value from time series:   104.00     for time:  108.0     to  109.0    
RIV   no.    9 value from time series:   113.50     for time:  108.0     to  109.0    
RIV   no.   10 value from time series:   113.50     for time:  108.0     to  109.0    

 NO OUTPUT CONTROL FOR STRESS PERIOD    5   TIME STEP   18
WEL   no.    1 value from time series:   0.0000     for time:  109.0     to  110.0    
WEL   no.    2 value from time series:   0.0000     for time:  109.0     to  110.0    
RIV   no.    1 value from time series:   101.00     for time:  109.0     to  110.0    
RIV   no.    2 value from time series:   101.00     for time:  109.0     to  110.0    
RIV   no.    3 value from time series:   111.50     for time:  109.0     to  110.0    
RIV   no.    4 value from time series:   111.50     for time:  109.0     to  110.0    
RIV   no.    5 value from time series:   115.10     for time:  109.0     to  110.0    
RIV   no.    6 value from time series:   115.10     for time:  109.0     to  110.0    
RIV   no.    7 value from time series:   104.00     for time:  109.0     to  110.0    
RIV   no.    8 value from time series:   104.00     for time:  109.0     to  110.0    
RIV   no.    9 value from time series:   113.50     for time:  109.0     to  110.0    
RIV   no.   10 value from time series:   113.50     for time:  109.0     to  110.0    
WEL   no.    1 value from time series:   0.0000     for time:  109.0     to  110.0    
WEL   no.    2 value from time series:   0.0000     for time:  109.0     to  110.0    
RIV   no.    1 value from time series:   101.00     for time:  109.0     to  110.0    
RIV   no.    2 value from time series:   101.00     for time:  109.0     to  110.0    
RIV   no.    3 value from time series:   111.50     for time:  109.0     to  110.0    
RIV   no.    4 value from time series:   111.50     for time:  109.0     to  110.0    
RIV   no.    5 value from time series:   115.10     for time:  109.0     to  110.0    
RIV   no.    6 value from time series:   115.10     for time:  109.0     to  110.0    
RIV   no.    7 value from time series:   104.00     for time:  109.0     to  110.0    
RIV   no.    8 value from time series:   104.00     for time:  109.0     to  110.0    
RIV   no.    9 value from time series:   113.50     for time:  109.0     to  110.0    
RIV   no.   10 value from time series:   113.50     for time:  109.0     to  110.0    

 NO OUTPUT CONTROL FOR STRESS PERIOD    5   TIME STEP   19
WEL   no.    1 value from time series:   0.0000     for time:  110.0     to  111.0    
WEL   no.    2 value from time series:   0.0000     for time:  110.0     to  111.0    
RIV   no.    1 value from time series:   101.00     for time:  110.0     to  111.0    
RIV   no.    2 value from time series:   101.00     for time:  110.0     to  111.0    
RIV   no.    3 value from time series:   111.50     for time:  110.0     to  111.0    
RIV   no.    4 value from time series:   111.50     for time:  110.0     to  111.0    
RIV   no.    5 value from time series:   115.10     for time:  110.0     to  111.0    
RIV   no.    6 value from time series:   115.10     for time:  110.0     to  111.0    
RIV   no.    7 value from time series:   104.00     for time:  110.0     to  111.0    
RIV   no.    8 value from time series:   104.00     for time:  110.0     to  111.0    
RIV   no.    9 value from time series:   113.50     for time:  110.0     to  111.0    
RIV   no.   10 value from time series:   113.50     for time:  110.0     to  111.0    
WEL   no.    1 value from time series:   0.0000     for time:  110.0     to  111.0    
WEL   no.    2 value from time series:   0.0000     for time:  110.0     to  111.0    
RIV   no.    1 value from time series:   101.00     for time:  110.0     to  111.0    
RIV   no.    2 value from time series:   101.00     for time:  110.0     to  111.0    
RIV   no.    3 value from time series:   111.50     for time:  110.0     to  111.0    
RIV   no.    4 value from time series:   111.50     for time:  110.0     to  111.0    
RIV   no.    5 value from time series:   115.10     for time:  110.0     to  111.0    
RIV   no.    6 value from time series:   115.10     for time:  110.0     to  111.0    
RIV   no.    7 value from time series:   104.00     for time:  110.0     to  111.0    
RIV   no.    8 value from time series:   104.00     for time:  110.0     to  111.0    
RIV   no.    9 value from time series:   113.50     for time:  110.0     to  111.0    
RIV   no.   10 value from time series:   113.50     for time:  110.0     to  111.0    

 NO OUTPUT CONTROL FOR STRESS PERIOD    5   TIME STEP   20
WEL   no.    1 value from time series:   0.0000     for time:  111.0     to  112.0    
WEL   no.    2 value from time series:   0.0000     for time:  111.0     to  112.0    
RIV   no.    1 value from time series:   101.00     for time:  111.0     to  112.0    
RIV   no.    2 value from time series:   101.00     for time:  111.0     to  112.0    
RIV   no.    3 value from time series:   111.50     for time:  111.0     to  112.0    
RIV   no.    4 value from time series:   111.50     for time:  111.0     to  112.0    
RIV   no.    5 value from time series:   115.10     for time:  111.0     to  112.0    
RIV   no.    6 value from time series:   115.10     for time:  111.0     to  112.0    
RIV   no.    7 value from time series:   104.00     for time:  111.0     to  112.0    
RIV   no.    8 value from time series:   104.00     for time:  111.0     to  112.0    
RIV   no.    9 value from time series:   113.50     for time:  111.0     to  112.0    
RIV   no.   10 value from time series:   113.50     for time:  111.0     to  112.0    
WEL   no.    1 value from time series:   0.0000     for time:  111.0     to  112.0    
WEL   no.    2 value from time series:   0.0000     for time:  111.0     to  112.0    
RIV   no.    1 value from time series:   101.00     for time:  111.0     to  112.0    
RIV   no.    2 value from time series:   101.00     for time:  111.0     to  112.0    
RIV   no.    3 value from time series:   111.50     for time:  111.0     to  112.0    
RIV   no.    4 value from time series:   111.50     for time:  111.0     to  112.0    
RIV   no.    5 value from time series:   115.10     for time:  111.0     to  112.0    
RIV   no.    6 value from time series:   115.10     for time:  111.0     to  112.0    
RIV   no.    7 value from time series:   104.00     for time:  111.0     to  112.0    
RIV   no.    8 value from time series:   104.00     for time:  111.0     to  112.0    
RIV   no.    9 value from time series:   113.50     for time:  111.0     to  112.0    
RIV   no.   10 value from time series:   113.50     for time:  111.0     to  112.0    

 NO OUTPUT CONTROL FOR STRESS PERIOD    5   TIME STEP   21
WEL   no.    1 value from time series:   0.0000     for time:  112.0     to  113.0    
WEL   no.    2 value from time series:   0.0000     for time:  112.0     to  113.0    
RIV   no.    1 value from time series:   101.00     for time:  112.0     to  113.0    
RIV   no.    2 value from time series:   101.00     for time:  112.0     to  113.0    
RIV   no.    3 value from time series:   111.50     for time:  112.0     to  113.0    
RIV   no.    4 value from time series:   111.50     for time:  112.0     to  113.0    
RIV   no.    5 value from time series:   115.10     for time:  112.0     to  113.0    
RIV   no.    6 value from time series:   115.10     for time:  112.0     to  113.0    
RIV   no.    7 value from time series:   104.00     for time:  112.0     to  113.0    
RIV   no.    8 value from time series:   104.00     for time:  112.0     to  113.0    
RIV   no.    9 value from time series:   113.50     for time:  112.0     to  113.0    
RIV   no.   10 value from time series:   113.50     for time:  112.0     to  113.0    
WEL   no.    1 value from time series:   0.0000     for time:  112.0     to  113.0    
WEL   no.    2 value from time series:   0.0000     for time:  112.0     to  113.0    
RIV   no.    1 value from time series:   101.00     for time:  112.0     to  113.0    
RIV   no.    2 value from time series:   101.00     for time:  112.0     to  113.0    
RIV   no.    3 value from time series:   111.50     for time:  112.0     to  113.0    
RIV   no.    4 value from time series:   111.50     for time:  112.0     to  113.0    
RIV   no.    5 value from time series:   115.10     for time:  112.0     to  113.0    
RIV   no.    6 value from time series:   115.10     for time:  112.0     to  113.0    
RIV   no.    7 value from time series:   104.00     for time:  112.0     to  113.0    
RIV   no.    8 value from time series:   104.00     for time:  112.0     to  113.0    
RIV   no.    9 value from time series:   113.50     for time:  112.0     to  113.0    
RIV   no.   10 value from time series:   113.50     for time:  112.0     to  113.0    

 NO OUTPUT CONTROL FOR STRESS PERIOD    5   TIME STEP   22
WEL   no.    1 value from time series:   0.0000     for time:  113.0     to  114.0    
WEL   no.    2 value from time series:   0.0000     for time:  113.0     to  114.0    
RIV   no.    1 value from time series:   101.00     for time:  113.0     to  114.0    
RIV   no.    2 value from time series:   101.00     for time:  113.0     to  114.0    
RIV   no.    3 value from time series:   111.50     for time:  113.0     to  114.0    
RIV   no.    4 value from time series:   111.50     for time:  113.0     to  114.0    
RIV   no.    5 value from time series:   115.10     for time:  113.0     to  114.0    
RIV   no.    6 value from time series:   115.10     for time:  113.0     to  114.0    
RIV   no.    7 value from time series:   104.00     for time:  113.0     to  114.0    
RIV   no.    8 value from time series:   104.00     for time:  113.0     to  114.0    
RIV   no.    9 value from time series:   113.50     for time:  113.0     to  114.0    
RIV   no.   10 value from time series:   113.50     for time:  113.0     to  114.0    
WEL   no.    1 value from time series:   0.0000     for time:  113.0     to  114.0    
WEL   no.    2 value from time series:   0.0000     for time:  113.0     to  114.0    
RIV   no.    1 value from time series:   101.00     for time:  113.0     to  114.0    
RIV   no.    2 value from time series:   101.00     for time:  113.0     to  114.0    
RIV   no.    3 value from time series:   111.50     for time:  113.0     to  114.0    
RIV   no.    4 value from time series:   111.50     for time:  113.0     to  114.0    
RIV   no.    5 value from time series:   115.10     for time:  113.0     to  114.0    
RIV   no.    6 value from time series:   115.10     for time:  113.0     to  114.0    
RIV   no.    7 value from time series:   104.00     for time:  113.0     to  114.0    
RIV   no.    8 value from time series:   104.00     for time:  113.0     to  114.0    
RIV   no.    9 value from time series:   113.50     for time:  113.0     to  114.0    
RIV   no.   10 value from time series:   113.50     for time:  113.0     to  114.0    

 NO OUTPUT CONTROL FOR STRESS PERIOD    5   TIME STEP   23
WEL   no.    1 value from time series:   0.0000     for time:  114.0     to  115.0    
WEL   no.    2 value from time series:   0.0000     for time:  114.0     to  115.0    
RIV   no.    1 value from time series:   101.00     for time:  114.0     to  115.0    
RIV   no.    2 value from time series:   101.00     for time:  114.0     to  115.0    
RIV   no.    3 value from time series:   111.50     for time:  114.0     to  115.0    
RIV   no.    4 value from time series:   111.50     for time:  114.0     to  115.0    
RIV   no.    5 value from time series:   115.10     for time:  114.0     to  115.0    
RIV   no.    6 value from time series:   115.10     for time:  114.0     to  115.0    
RIV   no.    7 value from time series:   104.00     for time:  114.0     to  115.0    
RIV   no.    8 value from time series:   104.00     for time:  114.0     to  115.0    
RIV   no.    9 value from time series:   113.50     for time:  114.0     to  115.0    
RIV   no.   10 value from time series:   113.50     for time:  114.0     to  115.0    
WEL   no.    1 value from time series:   0.0000     for time:  114.0     to  115.0    
WEL   no.    2 value from time series:   0.0000     for time:  114.0     to  115.0    
RIV   no.    1 value from time series:   101.00     for time:  114.0     to  115.0    
RIV   no.    2 value from time series:   101.00     for time:  114.0     to  115.0    
RIV   no.    3 value from time series:   111.50     for time:  114.0     to  115.0    
RIV   no.    4 value from time series:   111.50     for time:  114.0     to  115.0    
RIV   no.    5 value from time series:   115.10     for time:  114.0     to  115.0    
RIV   no.    6 value from time series:   115.10     for time:  114.0     to  115.0    
RIV   no.    7 value from time series:   104.00     for time:  114.0     to  115.0    
RIV   no.    8 value from time series:   104.00     for time:  114.0     to  115.0    
RIV   no.    9 value from time series:   113.50     for time:  114.0     to  115.0    
RIV   no.   10 value from time series:   113.50     for time:  114.0     to  115.0    

 NO OUTPUT CONTROL FOR STRESS PERIOD    5   TIME STEP   24
WEL   no.    1 value from time series:   0.0000     for time:  115.0     to  116.0    
WEL   no.    2 value from time series:   0.0000     for time:  115.0     to  116.0    
RIV   no.    1 value from time series:   101.00     for time:  115.0     to  116.0    
RIV   no.    2 value from time series:   101.00     for time:  115.0     to  116.0    
RIV   no.    3 value from time series:   111.50     for time:  115.0     to  116.0    
RIV   no.    4 value from time series:   111.50     for time:  115.0     to  116.0    
RIV   no.    5 value from time series:   115.10     for time:  115.0     to  116.0    
RIV   no.    6 value from time series:   115.10     for time:  115.0     to  116.0    
RIV   no.    7 value from time series:   104.00     for time:  115.0     to  116.0    
RIV   no.    8 value from time series:   104.00     for time:  115.0     to  116.0    
RIV   no.    9 value from time series:   113.50     for time:  115.0     to  116.0    
RIV   no.   10 value from time series:   113.50     for time:  115.0     to  116.0    
WEL   no.    1 value from time series:   0.0000     for time:  115.0     to  116.0    
WEL   no.    2 value from time series:   0.0000     for time:  115.0     to  116.0    
RIV   no.    1 value from time series:   101.00     for time:  115.0     to  116.0    
RIV   no.    2 value from time series:   101.00     for time:  115.0     to  116.0    
RIV   no.    3 value from time series:   111.50     for time:  115.0     to  116.0    
RIV   no.    4 value from time series:   111.50     for time:  115.0     to  116.0    
RIV   no.    5 value from time series:   115.10     for time:  115.0     to  116.0    
RIV   no.    6 value from time series:   115.10     for time:  115.0     to  116.0    
RIV   no.    7 value from time series:   104.00     for time:  115.0     to  116.0    
RIV   no.    8 value from time series:   104.00     for time:  115.0     to  116.0    
RIV   no.    9 value from time series:   113.50     for time:  115.0     to  116.0    
RIV   no.   10 value from time series:   113.50     for time:  115.0     to  116.0    

 NO OUTPUT CONTROL FOR STRESS PERIOD    5   TIME STEP   25
WEL   no.    1 value from time series:   0.0000     for time:  116.0     to  117.0    
WEL   no.    2 value from time series:   0.0000     for time:  116.0     to  117.0    
RIV   no.    1 value from time series:   101.00     for time:  116.0     to  117.0    
RIV   no.    2 value from time series:   101.00     for time:  116.0     to  117.0    
RIV   no.    3 value from time series:   111.50     for time:  116.0     to  117.0    
RIV   no.    4 value from time series:   111.50     for time:  116.0     to  117.0    
RIV   no.    5 value from time series:   115.10     for time:  116.0     to  117.0    
RIV   no.    6 value from time series:   115.10     for time:  116.0     to  117.0    
RIV   no.    7 value from time series:   104.00     for time:  116.0     to  117.0    
RIV   no.    8 value from time series:   104.00     for time:  116.0     to  117.0    
RIV   no.    9 value from time series:   113.50     for time:  116.0     to  117.0    
RIV   no.   10 value from time series:   113.50     for time:  116.0     to  117.0    
WEL   no.    1 value from time series:   0.0000     for time:  116.0     to  117.0    
WEL   no.    2 value from time series:   0.0000     for time:  116.0     to  117.0    
RIV   no.    1 value from time series:   101.00     for time:  116.0     to  117.0    
RIV   no.    2 value from time series:   101.00     for time:  116.0     to  117.0    
RIV   no.    3 value from time series:   111.50     for time:  116.0     to  117.0    
RIV   no.    4 value from time series:   111.50     for time:  116.0     to  117.0    
RIV   no.    5 value from time series:   115.10     for time:  116.0     to  117.0    
RIV   no.    6 value from time series:   115.10     for time:  116.0     to  117.0    
RIV   no.    7 value from time series:   104.00     for time:  116.0     to  117.0    
RIV   no.    8 value from time series:   104.00     for time:  116.0     to  117.0    
RIV   no.    9 value from time series:   113.50     for time:  116.0     to  117.0    
RIV   no.   10 value from time series:   113.50     for time:  116.0     to  117.0    

 NO OUTPUT CONTROL FOR STRESS PERIOD    5   TIME STEP   26
WEL   no.    1 value from time series:   0.0000     for time:  117.0     to  118.0    
WEL   no.    2 value from time series:   0.0000     for time:  117.0     to  118.0    
RIV   no.    1 value from time series:   101.00     for time:  117.0     to  118.0    
RIV   no.    2 value from time series:   101.00     for time:  117.0     to  118.0    
RIV   no.    3 value from time series:   111.50     for time:  117.0     to  118.0    
RIV   no.    4 value from time series:   111.50     for time:  117.0     to  118.0    
RIV   no.    5 value from time series:   115.10     for time:  117.0     to  118.0    
RIV   no.    6 value from time series:   115.10     for time:  117.0     to  118.0    
RIV   no.    7 value from time series:   104.00     for time:  117.0     to  118.0    
RIV   no.    8 value from time series:   104.00     for time:  117.0     to  118.0    
RIV   no.    9 value from time series:   113.50     for time:  117.0     to  118.0    
RIV   no.   10 value from time series:   113.50     for time:  117.0     to  118.0    
WEL   no.    1 value from time series:   0.0000     for time:  117.0     to  118.0    
WEL   no.    2 value from time series:   0.0000     for time:  117.0     to  118.0    
RIV   no.    1 value from time series:   101.00     for time:  117.0     to  118.0    
RIV   no.    2 value from time series:   101.00     for time:  117.0     to  118.0    
RIV   no.    3 value from time series:   111.50     for time:  117.0     to  118.0    
RIV   no.    4 value from time series:   111.50     for time:  117.0     to  118.0    
RIV   no.    5 value from time series:   115.10     for time:  117.0     to  118.0    
RIV   no.    6 value from time series:   115.10     for time:  117.0     to  118.0    
RIV   no.    7 value from time series:   104.00     for time:  117.0     to  118.0    
RIV   no.    8 value from time series:   104.00     for time:  117.0     to  118.0    
RIV   no.    9 value from time series:   113.50     for time:  117.0     to  118.0    
RIV   no.   10 value from time series:   113.50     for time:  117.0     to  118.0    

 NO OUTPUT CONTROL FOR STRESS PERIOD    5   TIME STEP   27
WEL   no.    1 value from time series:   0.0000     for time:  118.0     to  119.0    
WEL   no.    2 value from time series:   0.0000     for time:  118.0     to  119.0    
RIV   no.    1 value from time series:   101.00     for time:  118.0     to  119.0    
RIV   no.    2 value from time series:   101.00     for time:  118.0     to  119.0    
RIV   no.    3 value from time series:   111.50     for time:  118.0     to  119.0    
RIV   no.    4 value from time series:   111.50     for time:  118.0     to  119.0    
RIV   no.    5 value from time series:   115.10     for time:  118.0     to  119.0    
RIV   no.    6 value from time series:   115.10     for time:  118.0     to  119.0    
RIV   no.    7 value from time series:   104.00     for time:  118.0     to  119.0    
RIV   no.    8 value from time series:   104.00     for time:  118.0     to  119.0    
RIV   no.    9 value from time series:   113.50     for time:  118.0     to  119.0    
RIV   no.   10 value from time series:   113.50     for time:  118.0     to  119.0    
WEL   no.    1 value from time series:   0.0000     for time:  118.0     to  119.0    
WEL   no.    2 value from time series:   0.0000     for time:  118.0     to  119.0    
RIV   no.    1 value from time series:   101.00     for time:  118.0     to  119.0    
RIV   no.    2 value from time series:   101.00     for time:  118.0     to  119.0    
RIV   no.    3 value from time series:   111.50     for time:  118.0     to  119.0    
RIV   no.    4 value from time series:   111.50     for time:  118.0     to  119.0    
RIV   no.    5 value from time series:   115.10     for time:  118.0     to  119.0    
RIV   no.    6 value from time series:   115.10     for time:  118.0     to  119.0    
RIV   no.    7 value from time series:   104.00     for time:  118.0     to  119.0    
RIV   no.    8 value from time series:   104.00     for time:  118.0     to  119.0    
RIV   no.    9 value from time series:   113.50     for time:  118.0     to  119.0    
RIV   no.   10 value from time series:   113.50     for time:  118.0     to  119.0    

 NO OUTPUT CONTROL FOR STRESS PERIOD    5   TIME STEP   28
WEL   no.    1 value from time series:  -500.00     for time:  119.0     to  120.0    
WEL   no.    2 value from time series:   0.0000     for time:  119.0     to  120.0    
RIV   no.    1 value from time series:   101.00     for time:  119.0     to  120.0    
RIV   no.    2 value from time series:   101.00     for time:  119.0     to  120.0    
RIV   no.    3 value from time series:   111.50     for time:  119.0     to  120.0    
RIV   no.    4 value from time series:   111.50     for time:  119.0     to  120.0    
RIV   no.    5 value from time series:   115.10     for time:  119.0     to  120.0    
RIV   no.    6 value from time series:   115.10     for time:  119.0     to  120.0    
RIV   no.    7 value from time series:   104.00     for time:  119.0     to  120.0    
RIV   no.    8 value from time series:   104.00     for time:  119.0     to  120.0    
RIV   no.    9 value from time series:   113.50     for time:  119.0     to  120.0    
RIV   no.   10 value from time series:   113.50     for time:  119.0     to  120.0    
WEL   no.    1 value from time series:  -500.00     for time:  119.0     to  120.0    
WEL   no.    2 value from time series:   0.0000     for time:  119.0     to  120.0    
RIV   no.    1 value from time series:   101.00     for time:  119.0     to  120.0    
RIV   no.    2 value from time series:   101.00     for time:  119.0     to  120.0    
RIV   no.    3 value from time series:   111.50     for time:  119.0     to  120.0    
RIV   no.    4 value from time series:   111.50     for time:  119.0     to  120.0    
RIV   no.    5 value from time series:   115.10     for time:  119.0     to  120.0    
RIV   no.    6 value from time series:   115.10     for time:  119.0     to  120.0    
RIV   no.    7 value from time series:   104.00     for time:  119.0     to  120.0    
RIV   no.    8 value from time series:   104.00     for time:  119.0     to  120.0    
RIV   no.    9 value from time series:   113.50     for time:  119.0     to  120.0    
RIV   no.   10 value from time series:   113.50     for time:  119.0     to  120.0    

 NO OUTPUT CONTROL FOR STRESS PERIOD    5   TIME STEP   29
WEL   no.    1 value from time series:  -1500.0     for time:  120.0     to  121.0    
WEL   no.    2 value from time series:   0.0000     for time:  120.0     to  121.0    
RIV   no.    1 value from time series:   101.00     for time:  120.0     to  121.0    
RIV   no.    2 value from time series:   101.00     for time:  120.0     to  121.0    
RIV   no.    3 value from time series:   111.50     for time:  120.0     to  121.0    
RIV   no.    4 value from time series:   111.50     for time:  120.0     to  121.0    
RIV   no.    5 value from time series:   115.10     for time:  120.0     to  121.0    
RIV   no.    6 value from time series:   115.10     for time:  120.0     to  121.0    
RIV   no.    7 value from time series:   104.00     for time:  120.0     to  121.0    
RIV   no.    8 value from time series:   104.00     for time:  120.0     to  121.0    
RIV   no.    9 value from time series:   113.50     for time:  120.0     to  121.0    
RIV   no.   10 value from time series:   113.50     for time:  120.0     to  121.0    

 RchArraySeries           =  3.700000E-03 FOR LAYER   1

 EtsArraySeries           =  6.000000E-04 FOR LAYER   1
WEL   no.    1 value from time series:  -1500.0     for time:  120.0     to  121.0    
WEL   no.    2 value from time series:   0.0000     for time:  120.0     to  121.0    
RIV   no.    1 value from time series:   101.00     for time:  120.0     to  121.0    
RIV   no.    2 value from time series:   101.00     for time:  120.0     to  121.0    
RIV   no.    3 value from time series:   111.50     for time:  120.0     to  121.0    
RIV   no.    4 value from time series:   111.50     for time:  120.0     to  121.0    
RIV   no.    5 value from time series:   115.10     for time:  120.0     to  121.0    
RIV   no.    6 value from time series:   115.10     for time:  120.0     to  121.0    
RIV   no.    7 value from time series:   104.00     for time:  120.0     to  121.0    
RIV   no.    8 value from time series:   104.00     for time:  120.0     to  121.0    
RIV   no.    9 value from time series:   113.50     for time:  120.0     to  121.0    
RIV   no.   10 value from time series:   113.50     for time:  120.0     to  121.0    

 OUTPUT CONTROL FOR STRESS PERIOD    5   TIME STEP   30
    PRINT BUDGET
    SAVE BUDGET
    SAVE HEAD
    SAVE HEAD FOR ALL LAYERS
 UBDSV1 SAVING          STORAGE ON UNIT   1016 AT TIME STEP     30, STRESS PERIOD      5
 UBDSV1 SAVING FLOW RIGHT FACE  ON UNIT   1016 AT TIME STEP     30, STRESS PERIOD      5
 UBDSV1 SAVING FLOW FRONT FACE  ON UNIT   1016 AT TIME STEP     30, STRESS PERIOD      5
 UBDSV1 SAVING FLOW LOWER FACE  ON UNIT   1016 AT TIME STEP     30, STRESS PERIOD      5
 UBDSV4 SAVING WELLS NEAR RIVER ON UNIT   1016 AT TIME STEP     30, STRESS PERIOD      5

 WELLS NEAR RIVER   PERIOD  5   STEP 30
 BOUNDARY      1   LAYER   2   ROW     8   COL     4   RATE    -1500.00      WELL_2
 BOUNDARY      2   LAYER   2   ROW     3   COL     4   RATE     0.00000      WELL_1
 UBDSV4 SAVING RIVER            ON UNIT   1016 AT TIME STEP     30, STRESS PERIOD      5

 RIVER              PERIOD  5   STEP 30
 BOUNDARY      1   LAYER   1   ROW     1   COL    15   RATE    -4988.13    
 BOUNDARY      2   LAYER   1   ROW     2   COL    15   RATE    -6114.59      RIV2
 BOUNDARY      3   LAYER   1   ROW     3   COL    15   RATE    -2380.15      RIV3
 BOUNDARY      4   LAYER   1   ROW     4   COL    15   RATE    -3844.89    
 BOUNDARY      5   LAYER   1   ROW     5   COL    15   RATE    -2481.50    
 BOUNDARY      6   LAYER   1   ROW     6   COL    15   RATE    -1828.42    
 BOUNDARY      7   LAYER   1   ROW     7   COL    15   RATE    -6314.07      RIVX
 BOUNDARY      8   LAYER   1   ROW     8   COL    15   RATE    -6164.20      RIVX
 BOUNDARY      9   LAYER   1   ROW     9   COL    15   RATE    -2373.94      RIVX
 BOUNDARY     10   LAYER   1   ROW    10   COL    15   RATE    -3280.99    

 GHB LAKES          PERIOD  5   STEP 30
 BOUNDARY      1   LAYER   1   ROW     3   COL     1   RATE    -14923.8    
 BOUNDARY      2   LAYER   1   ROW     7   COL     1   RATE    -2204.31      GHB2_UPPER
 BOUNDARY      3   LAYER   1   ROW     7   COL     1   RATE    -13365.3      GHB2_LOWER
 UBDSV4 SAVING RECHARGE         ON UNIT   1016 AT TIME STEP     30, STRESS PERIOD      5

 RECHARGE           PERIOD  5   STEP 30
 BOUNDARY      1   LAYER   1   ROW     1   COL     1   RATE     825.833    
 BOUNDARY      2   LAYER   1   ROW     1   COL     2   RATE     825.833    
 BOUNDARY      3   LAYER   1   ROW     1   COL     3   RATE     825.833    
 BOUNDARY      4   LAYER   1   ROW     1   COL     4   RATE     825.833    
 BOUNDARY      5   LAYER   1   ROW     1   COL     5   RATE     825.833    
 BOUNDARY      6   LAYER   1   ROW     1   COL     6   RATE     825.833    
 BOUNDARY      7   LAYER   1   ROW     1   COL     7   RATE     825.833    
 BOUNDARY      8   LAYER   1   ROW     1   COL     8   RATE     825.833    
 BOUNDARY      9   LAYER   1   ROW     1   COL     9   RATE     825.833    
 BOUNDARY     10   LAYER   1   ROW     1   COL    10   RATE     825.833    
 BOUNDARY     11   LAYER   1   ROW     1   COL    11   RATE     825.833    
 BOUNDARY     12   LAYER   1   ROW     1   COL    12   RATE     825.833    
 BOUNDARY     13   LAYER   1   ROW     1   COL    13   RATE     825.833    
 BOUNDARY     14   LAYER   1   ROW     1   COL    14   RATE     825.833    
 BOUNDARY     15   LAYER   1   ROW     1   COL    15   RATE     825.833    
 BOUNDARY     16   LAYER   1   ROW     2   COL     1   RATE     825.833    
 BOUNDARY     17   LAYER   1   ROW     2   COL     2   RATE     825.833    
 BOUNDARY     18   LAYER   1   ROW     2   COL     3   RATE     825.833    
 BOUNDARY     19   LAYER   1   ROW     2   COL     4   RATE     825.833    
 BOUNDARY     20   LAYER   1   ROW     2   COL     5   RATE     825.833    
 BOUNDARY     21   LAYER   1   ROW     2   COL     6   RATE     825.833    
 BOUNDARY     22   LAYER   1   ROW     2   COL     7   RATE     825.833    
 BOUNDARY     23   LAYER   1   ROW     2   COL     8   RATE     825.833    
 BOUNDARY     24   LAYER   1   ROW     2   COL     9   RATE     825.833    
 BOUNDARY     25   LAYER   1   ROW     2   COL    10   RATE     825.833    
 BOUNDARY     26   LAYER   1   ROW     2   COL    11   RATE     825.833    
 BOUNDARY     27   LAYER   1   ROW     2   COL    12   RATE     825.833    
 BOUNDARY     28   LAYER   1   ROW     2   COL    13   RATE     825.833    
 BOUNDARY     29   LAYER   1   ROW     2   COL    14   RATE     825.833    
 BOUNDARY     30   LAYER   1   ROW     2   COL    15   RATE     825.833    
 BOUNDARY     31   LAYER   1   ROW     3   COL     1   RATE     825.833    
 BOUNDARY     32   LAYER   1   ROW     3   COL     2   RATE     825.833    
 BOUNDARY     33   LAYER   1   ROW     3   COL     3   RATE     825.833    
 BOUNDARY     34   LAYER   1   ROW     3   COL     4   RATE     825.833    
 BOUNDARY     35   LAYER   1   ROW     3   COL     5   RATE     825.833    
 BOUNDARY     36   LAYER   1   ROW     3   COL     6   RATE     825.833    
 BOUNDARY     37   LAYER   1   ROW     3   COL     7   RATE     825.833    
 BOUNDARY     38   LAYER   1   ROW     3   COL     8   RATE     825.833    
 BOUNDARY     39   LAYER   1   ROW     3   COL     9   RATE     825.833    
 BOUNDARY     40   LAYER   1   ROW     3   COL    10   RATE     825.833    
 BOUNDARY     41   LAYER   1   ROW     3   COL    11   RATE     825.833    
 BOUNDARY     42   LAYER   1   ROW     3   COL    12   RATE     825.833    
 BOUNDARY     43   LAYER   1   ROW     3   COL    13   RATE     825.833    
 BOUNDARY     44   LAYER   1   ROW     3   COL    14   RATE     825.833    
 BOUNDARY     45   LAYER   1   ROW     3   COL    15   RATE     825.833    
 BOUNDARY     46   LAYER   1   ROW     4   COL     1   RATE     825.833    
 BOUNDARY     47   LAYER   1   ROW     4   COL     2   RATE     825.833    
 BOUNDARY     48   LAYER   1   ROW     4   COL     3   RATE     825.833    
 BOUNDARY     49   LAYER   1   ROW     4   COL     4   RATE     825.833    
 BOUNDARY     50   LAYER   1   ROW     4   COL     5   RATE     825.833    
 BOUNDARY     51   LAYER   1   ROW     4   COL     6   RATE     825.833    
 BOUNDARY     52   LAYER   1   ROW     4   COL     7   RATE     825.833    
 BOUNDARY     53   LAYER   1   ROW     4   COL     8   RATE     825.833    
 BOUNDARY     54   LAYER   1   ROW     4   COL     9   RATE     825.833    
 BOUNDARY     55   LAYER   1   ROW     4   COL    10   RATE     825.833    
 BOUNDARY     56   LAYER   1   ROW     4   COL    11   RATE     825.833    
 BOUNDARY     57   LAYER   1   ROW     4   COL    12   RATE     825.833    
 BOUNDARY     58   LAYER   1   ROW     4   COL    13   RATE     825.833    
 BOUNDARY     59   LAYER   1   ROW     4   COL    14   RATE     825.833    
 BOUNDARY     60   LAYER   1   ROW     4   COL    15   RATE     825.833    
 BOUNDARY     61   LAYER   1   ROW     5   COL     1   RATE     825.833    
 BOUNDARY     62   LAYER   1   ROW     5   COL     2   RATE     825.833    
 BOUNDARY     63   LAYER   1   ROW     5   COL     3   RATE     825.833    
 BOUNDARY     64   LAYER   1   ROW     5   COL     4   RATE     825.833    
 BOUNDARY     65   LAYER   1   ROW     5   COL     5   RATE     825.833    
 BOUNDARY     66   LAYER   1   ROW     5   COL     6   RATE     825.833    
 BOUNDARY     67   LAYER   1   ROW     5   COL     7   RATE     825.833    
 BOUNDARY     68   LAYER   1   ROW     5   COL     8   RATE     825.833    
 BOUNDARY     69   LAYER   1   ROW     5   COL     9   RATE     825.833    
 BOUNDARY     70   LAYER   1   ROW     5   COL    10   RATE     825.833    
 BOUNDARY     71   LAYER   1   ROW     5   COL    11   RATE     825.833    
 BOUNDARY     72   LAYER   1   ROW     5   COL    12   RATE     825.833    
 BOUNDARY     73   LAYER   1   ROW     5   COL    13   RATE     825.833    
 BOUNDARY     74   LAYER   1   ROW     5   COL    14   RATE     825.833    
 BOUNDARY     75   LAYER   1   ROW     5   COL    15   RATE     825.833    
 BOUNDARY     76   LAYER   1   ROW     6   COL     1   RATE     825.833    
 BOUNDARY     77   LAYER   1   ROW     6   COL     2   RATE     825.833    
 BOUNDARY     78   LAYER   1   ROW     6   COL     3   RATE     825.833    
 BOUNDARY     79   LAYER   1   ROW     6   COL     4   RATE     825.833    
 BOUNDARY     80   LAYER   1   ROW     6   COL     5   RATE     825.833    
 BOUNDARY     81   LAYER   1   ROW     6   COL     6   RATE     825.833    
 BOUNDARY     82   LAYER   1   ROW     6   COL     7   RATE     825.833    
 BOUNDARY     83   LAYER   1   ROW     6   COL     8   RATE     825.833    
 BOUNDARY     84   LAYER   1   ROW     6   COL     9   RATE     825.833    
 BOUNDARY     85   LAYER   1   ROW     6   COL    10   RATE     825.833    
 BOUNDARY     86   LAYER   1   ROW     6   COL    11   RATE     825.833    
 BOUNDARY     87   LAYER   1   ROW     6   COL    12   RATE     825.833    
 BOUNDARY     88   LAYER   1   ROW     6   COL    13   RATE     825.833    
 BOUNDARY     89   LAYER   1   ROW     6   COL    14   RATE     825.833    
 BOUNDARY     90   LAYER   1   ROW     6   COL    15   RATE     825.833    
 BOUNDARY     91   LAYER   1   ROW     7   COL     1   RATE     825.833    
 BOUNDARY     92   LAYER   1   ROW     7   COL     2   RATE     825.833    
 BOUNDARY     93   LAYER   1   ROW     7   COL     3   RATE     825.833    
 BOUNDARY     94   LAYER   1   ROW     7   COL     4   RATE     825.833    
 BOUNDARY     95   LAYER   1   ROW     7   COL     5   RATE     825.833    
 BOUNDARY     96   LAYER   1   ROW     7   COL     6   RATE     825.833    
 BOUNDARY     97   LAYER   1   ROW     7   COL     7   RATE     825.833    
 BOUNDARY     98   LAYER   1   ROW     7   COL     8   RATE     825.833    
 BOUNDARY     99   LAYER   1   ROW     7   COL     9   RATE     825.833    
 BOUNDARY    100   LAYER   1   ROW     7   COL    10   RATE     825.833    
 BOUNDARY    101   LAYER   1   ROW     7   COL    11   RATE     825.833    
 BOUNDARY    102   LAYER   1   ROW     7   COL    12   RATE     825.833    
 BOUNDARY    103   LAYER   1   ROW     7   COL    13   RATE     825.833    
 BOUNDARY    104   LAYER   1   ROW     7   COL    14   RATE     825.833    
 BOUNDARY    105   LAYER   1   ROW     7   COL    15   RATE     825.833    
 BOUNDARY    106   LAYER   1   ROW     8   COL     1   RATE     825.833    
 BOUNDARY    107   LAYER   1   ROW     8   COL     2   RATE     825.833    
 BOUNDARY    108   LAYER   1   ROW     8   COL     3   RATE     825.833    
 BOUNDARY    109   LAYER   1   ROW     8   COL     4   RATE     825.833    
 BOUNDARY    110   LAYER   1   ROW     8   COL     5   RATE     825.833    
 BOUNDARY    111   LAYER   1   ROW     8   COL     6   RATE     825.833    
 BOUNDARY    112   LAYER   1   ROW     8   COL     7   RATE     825.833    
 BOUNDARY    113   LAYER   1   ROW     8   COL     8   RATE     825.833    
 BOUNDARY    114   LAYER   1   ROW     8   COL     9   RATE     825.833    
 BOUNDARY    115   LAYER   1   ROW     8   COL    10   RATE     825.833    
 BOUNDARY    116   LAYER   1   ROW     8   COL    11   RATE     825.833    
 BOUNDARY    117   LAYER   1   ROW     8   COL    12   RATE     825.833    
 BOUNDARY    118   LAYER   1   ROW     8   COL    13   RATE     825.833    
 BOUNDARY    119   LAYER   1   ROW     8   COL    14   RATE     825.833    
 BOUNDARY    120   LAYER   1   ROW     8   COL    15   RATE     825.833    
 BOUNDARY    121   LAYER   1   ROW     9   COL     1   RATE     825.833    
 BOUNDARY    122   LAYER   1   ROW     9   COL     2   RATE     825.833    
 BOUNDARY    123   LAYER   1   ROW     9   COL     3   RATE     825.833    
 BOUNDARY    124   LAYER   1   ROW     9   COL     4   RATE     825.833    
 BOUNDARY    125   LAYER   1   ROW     9   COL     5   RATE     825.833    
 BOUNDARY    126   LAYER   1   ROW     9   COL     6   RATE     825.833    
 BOUNDARY    127   LAYER   1   ROW     9   COL     7   RATE     825.833    
 BOUNDARY    128   LAYER   1   ROW     9   COL     8   RATE     825.833    
 BOUNDARY    129   LAYER   1   ROW     9   COL     9   RATE     825.833    
 BOUNDARY    130   LAYER   1   ROW     9   COL    10   RATE     825.833    
 BOUNDARY    131   LAYER   1   ROW     9   COL    11   RATE     825.833    
 BOUNDARY    132   LAYER   1   ROW     9   COL    12   RATE     825.833    
 BOUNDARY    133   LAYER   1   ROW     9   COL    13   RATE     825.833    
 BOUNDARY    134   LAYER   1   ROW     9   COL    14   RATE     825.833    
 BOUNDARY    135   LAYER   1   ROW     9   COL    15   RATE     825.833    
 BOUNDARY    136   LAYER   1   ROW    10   COL     1   RATE     825.833    
 BOUNDARY    137   LAYER   1   ROW    10   COL     2   RATE     825.833    
 BOUNDARY    138   LAYER   1   ROW    10   COL     3   RATE     825.833    
 BOUNDARY    139   LAYER   1   ROW    10   COL     4   RATE     825.833    
 BOUNDARY    140   LAYER   1   ROW    10   COL     5   RATE     825.833    
 BOUNDARY    141   LAYER   1   ROW    10   COL     6   RATE     825.833    
 BOUNDARY    142   LAYER   1   ROW    10   COL     7   RATE     825.833    
 BOUNDARY    143   LAYER   1   ROW    10   COL     8   RATE     825.833    
 BOUNDARY    144   LAYER   1   ROW    10   COL     9   RATE     825.833    
 BOUNDARY    145   LAYER   1   ROW    10   COL    10   RATE     825.833    
 BOUNDARY    146   LAYER   1   ROW    10   COL    11   RATE     825.833    
 BOUNDARY    147   LAYER   1   ROW    10   COL    12   RATE     825.833    
 BOUNDARY    148   LAYER   1   ROW    10   COL    13   RATE     825.833    
 BOUNDARY    149   LAYER   1   ROW    10   COL    14   RATE     825.833    
 BOUNDARY    150   LAYER   1   ROW    10   COL    15   RATE     825.833    
 UBDSV4 SAVING ET SEGS          ON UNIT   1016 AT TIME STEP     30, STRESS PERIOD      5

 ET SEGS            PERIOD  5   STEP 30
 BOUNDARY      1   LAYER   1   ROW     1   COL     1   RATE    -3.84549    
 BOUNDARY      2   LAYER   1   ROW     1   COL     2   RATE    -12.3437    
 BOUNDARY      3   LAYER   1   ROW     1   COL     3   RATE    -80.6784    
 BOUNDARY      4   LAYER   1   ROW     1   COL     4   RATE    -112.812    
 BOUNDARY      5   LAYER   1   ROW     1   COL     5   RATE    -112.812    
 BOUNDARY      6   LAYER   1   ROW     1   COL     6   RATE    -112.812    
 BOUNDARY      7   LAYER   1   ROW     1   COL     7   RATE    -112.812    
 BOUNDARY      8   LAYER   1   ROW     1   COL     8   RATE    -112.812    
 BOUNDARY      9   LAYER   1   ROW     1   COL     9   RATE    -112.812    
 BOUNDARY     10   LAYER   1   ROW     1   COL    10   RATE    -112.812    
 BOUNDARY     11   LAYER   1   ROW     1   COL    11   RATE    -112.812    
 BOUNDARY     12   LAYER   1   ROW     1   COL    12   RATE    -23.9574    
 BOUNDARY     13   LAYER   1   ROW     1   COL    13   RATE   -0.475665    
 BOUNDARY     14   LAYER   1   ROW     1   COL    14   RATE     0.00000    
 BOUNDARY     15   LAYER   1   ROW     1   COL    15   RATE     0.00000    
 BOUNDARY     16   LAYER   1   ROW     2   COL     1   RATE     0.00000    
 BOUNDARY     17   LAYER   1   ROW     2   COL     2   RATE    -6.47517    
 BOUNDARY     18   LAYER   1   ROW     2   COL     3   RATE    -49.0079    
 BOUNDARY     19   LAYER   1   ROW     2   COL     4   RATE    -112.812    
 BOUNDARY     20   LAYER   1   ROW     2   COL     5   RATE    -112.812    
 BOUNDARY     21   LAYER   1   ROW     2   COL     6   RATE    -112.812    
 BOUNDARY     22   LAYER   1   ROW     2   COL     7   RATE    -112.812    
 BOUNDARY     23   LAYER   1   ROW     2   COL     8   RATE    -112.812    
 BOUNDARY     24   LAYER   1   ROW     2   COL     9   RATE    -112.812    
 BOUNDARY     25   LAYER   1   ROW     2   COL    10   RATE    -112.812    
 BOUNDARY     26   LAYER   1   ROW     2   COL    11   RATE    -112.812    
 BOUNDARY     27   LAYER   1   ROW     2   COL    12   RATE    -25.9247    
 BOUNDARY     28   LAYER   1   ROW     2   COL    13   RATE    -1.58793    
 BOUNDARY     29   LAYER   1   ROW     2   COL    14   RATE     0.00000    
 BOUNDARY     30   LAYER   1   ROW     2   COL    15   RATE     0.00000    
 BOUNDARY     31   LAYER   1   ROW     3   COL     1   RATE     0.00000    
 BOUNDARY     32   LAYER   1   ROW     3   COL     2   RATE     0.00000    
 BOUNDARY     33   LAYER   1   ROW     3   COL     3   RATE    -29.9903    
 BOUNDARY     34   LAYER   1   ROW     3   COL     4   RATE    -112.812    
 BOUNDARY     35   LAYER   1   ROW     3   COL     5   RATE    -112.812    
 BOUNDARY     36   LAYER   1   ROW     3   COL     6   RATE    -112.812    
 BOUNDARY     37   LAYER   1   ROW     3   COL     7   RATE    -112.812    
 BOUNDARY     38   LAYER   1   ROW     3   COL     8   RATE    -112.812    
 BOUNDARY     39   LAYER   1   ROW     3   COL     9   RATE    -112.812    
 BOUNDARY     40   LAYER   1   ROW     3   COL    10   RATE    -112.812    
 BOUNDARY     41   LAYER   1   ROW     3   COL    11   RATE    -112.812    
 BOUNDARY     42   LAYER   1   ROW     3   COL    12   RATE    -29.2384    
 BOUNDARY     43   LAYER   1   ROW     3   COL    13   RATE    -3.61309    
 BOUNDARY     44   LAYER   1   ROW     3   COL    14   RATE     0.00000    
 BOUNDARY     45   LAYER   1   ROW     3   COL    15   RATE     0.00000    
 BOUNDARY     46   LAYER   1   ROW     4   COL     1   RATE     0.00000    
 BOUNDARY     47   LAYER   1   ROW     4   COL     2   RATE    -4.76997    
 BOUNDARY     48   LAYER   1   ROW     4   COL     3   RATE    -36.7177    
 BOUNDARY     49   LAYER   1   ROW     4   COL     4   RATE    -112.812    
 BOUNDARY     50   LAYER   1   ROW     4   COL     5   RATE    -112.812    
 BOUNDARY     51   LAYER   1   ROW     4   COL     6   RATE    -112.812    
 BOUNDARY     52   LAYER   1   ROW     4   COL     7   RATE    -112.812    
 BOUNDARY     53   LAYER   1   ROW     4   COL     8   RATE    -112.812    
 BOUNDARY     54   LAYER   1   ROW     4   COL     9   RATE    -112.812    
 BOUNDARY     55   LAYER   1   ROW     4   COL    10   RATE    -112.812    
 BOUNDARY     56   LAYER   1   ROW     4   COL    11   RATE    -112.812    
 BOUNDARY     57   LAYER   1   ROW     4   COL    12   RATE    -32.3770    
 BOUNDARY     58   LAYER   1   ROW     4   COL    13   RATE    -5.24733    
 BOUNDARY     59   LAYER   1   ROW     4   COL    14   RATE     0.00000    
 BOUNDARY     60   LAYER   1   ROW     4   COL    15   RATE     0.00000    
 BOUNDARY     61   LAYER   1   ROW     5   COL     1   RATE     0.00000    
 BOUNDARY     62   LAYER   1   ROW     5   COL     2   RATE    -8.14392    
 BOUNDARY     63   LAYER   1   ROW     5   COL     3   RATE    -60.0216    
 BOUNDARY     64   LAYER   1   ROW     5   COL     4   RATE    -112.812    
 BOUNDARY     65   LAYER   1   ROW     5   COL     5   RATE    -112.812    
 BOUNDARY     66   LAYER   1   ROW     5   COL     6   RATE    -112.812    
 BOUNDARY     67   LAYER   1   ROW     5   COL     7   RATE    -112.812    
 BOUNDARY     68   LAYER   1   ROW     5   COL     8   RATE    -112.812    
 BOUNDARY     69   LAYER   1   ROW     5   COL     9   RATE    -112.812    
 BOUNDARY     70   LAYER   1   ROW     5   COL    10   RATE    -112.812    
 BOUNDARY     71   LAYER   1   ROW     5   COL    11   RATE    -112.812    
 BOUNDARY     72   LAYER   1   ROW     5   COL    12   RATE    -37.4169    
 BOUNDARY     73   LAYER   1   ROW     5   COL    13   RATE    -6.23835    
 BOUNDARY     74   LAYER   1   ROW     5   COL    14   RATE     0.00000    
 BOUNDARY     75   LAYER   1   ROW     5   COL    15   RATE     0.00000    
 BOUNDARY     76   LAYER   1   ROW     6   COL     1   RATE     0.00000    
 BOUNDARY     77   LAYER   1   ROW     6   COL     2   RATE    -6.50072    
 BOUNDARY     78   LAYER   1   ROW     6   COL     3   RATE    -64.2309    
 BOUNDARY     79   LAYER   1   ROW     6   COL     4   RATE    -112.812    
 BOUNDARY     80   LAYER   1   ROW     6   COL     5   RATE    -112.812    
 BOUNDARY     81   LAYER   1   ROW     6   COL     6   RATE    -112.812    
 BOUNDARY     82   LAYER   1   ROW     6   COL     7   RATE    -112.812    
 BOUNDARY     83   LAYER   1   ROW     6   COL     8   RATE    -112.812    
 BOUNDARY     84   LAYER   1   ROW     6   COL     9   RATE    -112.812    
 BOUNDARY     85   LAYER   1   ROW     6   COL    10   RATE    -112.812    
 BOUNDARY     86   LAYER   1   ROW     6   COL    11   RATE    -112.812    
 BOUNDARY     87   LAYER   1   ROW     6   COL    12   RATE    -41.1706    
 BOUNDARY     88   LAYER   1   ROW     6   COL    13   RATE    -6.18129    
 BOUNDARY     89   LAYER   1   ROW     6   COL    14   RATE     0.00000    
 BOUNDARY     90   LAYER   1   ROW     6   COL    15   RATE     0.00000    
 BOUNDARY     91   LAYER   1   ROW     7   COL     1   RATE     0.00000    
 BOUNDARY     92   LAYER   1   ROW     7   COL     2   RATE    -2.47371    
 BOUNDARY     93   LAYER   1   ROW     7   COL     3   RATE    -71.9220    
 BOUNDARY     94   LAYER   1   ROW     7   COL     4   RATE    -112.812    
 BOUNDARY     95   LAYER   1   ROW     7   COL     5   RATE    -112.812    
 BOUNDARY     96   LAYER   1   ROW     7   COL     6   RATE    -112.812    
 BOUNDARY     97   LAYER   1   ROW     7   COL     7   RATE    -112.812    
 BOUNDARY     98   LAYER   1   ROW     7   COL     8   RATE    -112.812    
 BOUNDARY     99   LAYER   1   ROW     7   COL     9   RATE    -112.812    
 BOUNDARY    100   LAYER   1   ROW     7   COL    10   RATE    -112.812    
 BOUNDARY    101   LAYER   1   ROW     7   COL    11   RATE    -112.812    
 BOUNDARY    102   LAYER   1   ROW     7   COL    12   RATE    -40.3571    
 BOUNDARY    103   LAYER   1   ROW     7   COL    13   RATE    -5.37760    
 BOUNDARY    104   LAYER   1   ROW     7   COL    14   RATE     0.00000    
 BOUNDARY    105   LAYER   1   ROW     7   COL    15   RATE     0.00000    
 BOUNDARY    106   LAYER   1   ROW     8   COL     1   RATE     0.00000    
 BOUNDARY    107   LAYER   1   ROW     8   COL     2   RATE    -17.4621    
 BOUNDARY    108   LAYER   1   ROW     8   COL     3   RATE    -112.812    
 BOUNDARY    109   LAYER   1   ROW     8   COL     4   RATE    -112.812    
 BOUNDARY    110   LAYER   1   ROW     8   COL     5   RATE    -112.812    
 BOUNDARY    111   LAYER   1   ROW     8   COL     6   RATE    -112.812    
 BOUNDARY    112   LAYER   1   ROW     8   COL     7   RATE    -112.812    
 BOUNDARY    113   LAYER   1   ROW     8   COL     8   RATE    -112.812    
 BOUNDARY    114   LAYER   1   ROW     8   COL     9   RATE    -112.812    
 BOUNDARY    115   LAYER   1   ROW     8   COL    10   RATE    -112.812    
 BOUNDARY    116   LAYER   1   ROW     8   COL    11   RATE    -112.812    
 BOUNDARY    117   LAYER   1   ROW     8   COL    12   RATE    -42.8699    
 BOUNDARY    118   LAYER   1   ROW     8   COL    13   RATE    -5.42364    
 BOUNDARY    119   LAYER   1   ROW     8   COL    14   RATE     0.00000    
 BOUNDARY    120   LAYER   1   ROW     8   COL    15   RATE     0.00000    
 BOUNDARY    121   LAYER   1   ROW     9   COL     1   RATE    -26.0572    
 BOUNDARY    122   LAYER   1   ROW     9   COL     2   RATE    -93.7749    
 BOUNDARY    123   LAYER   1   ROW     9   COL     3   RATE    -112.812    
 BOUNDARY    124   LAYER   1   ROW     9   COL     4   RATE    -112.812    
 BOUNDARY    125   LAYER   1   ROW     9   COL     5   RATE    -112.812    
 BOUNDARY    126   LAYER   1   ROW     9   COL     6   RATE    -112.812    
 BOUNDARY    127   LAYER   1   ROW     9   COL     7   RATE    -112.812    
 BOUNDARY    128   LAYER   1   ROW     9   COL     8   RATE    -112.812    
 BOUNDARY    129   LAYER   1   ROW     9   COL     9   RATE    -112.812    
 BOUNDARY    130   LAYER   1   ROW     9   COL    10   RATE    -112.812    
 BOUNDARY    131   LAYER   1   ROW     9   COL    11   RATE    -112.812    
 BOUNDARY    132   LAYER   1   ROW     9   COL    12   RATE    -49.5537    
 BOUNDARY    133   LAYER   1   ROW     9   COL    13   RATE    -6.40317    
 BOUNDARY    134   LAYER   1   ROW     9   COL    14   RATE     0.00000    
 BOUNDARY    135   LAYER   1   ROW     9   COL    15   RATE     0.00000    
 BOUNDARY    136   LAYER   1   ROW    10   COL     1   RATE    -102.914    
 BOUNDARY    137   LAYER   1   ROW    10   COL     2   RATE    -112.812    
 BOUNDARY    138   LAYER   1   ROW    10   COL     3   RATE    -112.812    
 BOUNDARY    139   LAYER   1   ROW    10   COL     4   RATE    -112.812    
 BOUNDARY    140   LAYER   1   ROW    10   COL     5   RATE    -112.812    
 BOUNDARY    141   LAYER   1   ROW    10   COL     6   RATE    -112.812    
 BOUNDARY    142   LAYER   1   ROW    10   COL     7   RATE    -112.812    
 BOUNDARY    143   LAYER   1   ROW    10   COL     8   RATE    -112.812    
 BOUNDARY    144   LAYER   1   ROW    10   COL     9   RATE    -112.812    
 BOUNDARY    145   LAYER   1   ROW    10   COL    10   RATE    -112.812    
 BOUNDARY    146   LAYER   1   ROW    10   COL    11   RATE    -112.812    
 BOUNDARY    147   LAYER   1   ROW    10   COL    12   RATE    -54.3333    
 BOUNDARY    148   LAYER   1   ROW    10   COL    13   RATE    -7.02712    
 BOUNDARY    149   LAYER   1   ROW    10   COL    14   RATE     0.00000    
 BOUNDARY    150   LAYER   1   ROW    10   COL    15   RATE     0.00000    

 HEAD WILL BE SAVED ON UNIT 1017 AT END OF TIME STEP   30, STRESS PERIOD    5
1
  VOLUME BUDGET FOR ENTIRE MODEL AT END OF TIME STEP   30, STRESS PERIOD   5
  ------------------------------------------------------------------------------

     CUMULATIVE VOLUME      L**3       RATES FOR THIS TIME STEP      L**3/T
     ------------------                 ------------------------

           IN:                                      IN:
           ---                                      ---
             STORAGE =       52955.3960               STORAGE =        1107.8739
    WELLS NEAR RIVER =           0.0000      WELLS NEAR RIVER =           0.0000
               RIVER =           0.0000                 RIVER =           0.0000
           GHB LAKES =           0.0000             GHB LAKES =           0.0000
            RECHARGE =    11711375.0000              RECHARGE =      123875.0000
             ET SEGS =           0.0000               ET SEGS =           0.0000

            TOTAL IN =    11764330.3960              TOTAL IN =      124982.8739

          OUT:                                     OUT:
          ----                                     ----
             STORAGE =     2617495.4281               STORAGE =       42640.2064
    WELLS NEAR RIVER =        5570.0000      WELLS NEAR RIVER =        1500.0000
               RIVER =     4526000.2558                 RIVER =       39770.8663
           GHB LAKES =     3604496.9236             GHB LAKES =       30493.4473
            RECHARGE =           0.0000              RECHARGE =           0.0000
             ET SEGS =     1010767.7895               ET SEGS =       10578.3540

           TOTAL OUT =    11764330.3970             TOTAL OUT =      124982.8739

            IN - OUT =      -1.0456E-03              IN - OUT =      -6.9281E-06

 PERCENT DISCREPANCY =          -0.00     PERCENT DISCREPANCY =          -0.00






         TIME SUMMARY AT END OF TIME STEP   30 IN STRESS PERIOD    5
                    SECONDS     MINUTES      HOURS       DAYS        YEARS
                    -----------------------------------------------------------
   TIME STEP LENGTH  86400.      1440.0      24.000     1.00000     2.73785E-03
 STRESS PERIOD TIME 2.59200E+06  43200.      720.00      30.000     8.21355E-02
         TOTAL TIME 1.04544E+07 1.74240E+05  2904.0      121.00     0.33128    

 REUSING STORAGE VALUES FROM LAST STRESS PERIOD

 WEL NO.  LAYER   ROW    COL     STRESS RATE  BOUNDARY NAME         VAR1            VAR2            VAR3            
 -------------------------------------------------------------------------------------------------------------------

 REUSING RIVS FROM LAST STRESS PERIOD

 REUSING GHBS FROM LAST STRESS PERIOD

 REUSING RCHS FROM LAST STRESS PERIOD

 REUSING EVTS FROM LAST STRESS PERIOD
RIV   no.    1 value from time series:   101.00     for time:  121.0     to  122.0    
RIV   no.    2 value from time series:   101.00     for time:  121.0     to  122.0    
RIV   no.    3 value from time series:   111.50     for time:  121.0     to  122.0    
RIV   no.    4 value from time series:   111.50     for time:  121.0     to  122.0    
RIV   no.    5 value from time series:   115.10     for time:  121.0     to  122.0    
RIV   no.    6 value from time series:   115.10     for time:  121.0     to  122.0    
RIV   no.    7 value from time series:   104.00     for time:  121.0     to  122.0    
RIV   no.    8 value from time series:   104.00     for time:  121.0     to  122.0    
RIV   no.    9 value from time series:   113.50     for time:  121.0     to  122.0    
RIV   no.   10 value from time series:   113.50     for time:  121.0     to  122.0    
RIV   no.    1 value from time series:   101.00     for time:  121.0     to  122.0    
RIV   no.    2 value from time series:   101.00     for time:  121.0     to  122.0    
RIV   no.    3 value from time series:   111.50     for time:  121.0     to  122.0    
RIV   no.    4 value from time series:   111.50     for time:  121.0     to  122.0    
RIV   no.    5 value from time series:   115.10     for time:  121.0     to  122.0    
RIV   no.    6 value from time series:   115.10     for time:  121.0     to  122.0    
RIV   no.    7 value from time series:   104.00     for time:  121.0     to  122.0    
RIV   no.    8 value from time series:   104.00     for time:  121.0     to  122.0    
RIV   no.    9 value from time series:   113.50     for time:  121.0     to  122.0    
RIV   no.   10 value from time series:   113.50     for time:  121.0     to  122.0    

 OUTPUT CONTROL FOR STRESS PERIOD    6   TIME STEP    1
    SAVE BUDGET
    SAVE HEAD
    SAVE HEAD FOR ALL LAYERS
 UBDSV1 SAVING          STORAGE ON UNIT   1016 AT TIME STEP      1, STRESS PERIOD      6
 UBDSV1 SAVING FLOW RIGHT FACE  ON UNIT   1016 AT TIME STEP      1, STRESS PERIOD      6
 UBDSV1 SAVING FLOW FRONT FACE  ON UNIT   1016 AT TIME STEP      1, STRESS PERIOD      6
 UBDSV1 SAVING FLOW LOWER FACE  ON UNIT   1016 AT TIME STEP      1, STRESS PERIOD      6
 UBDSV4 SAVING WELLS NEAR RIVER ON UNIT   1016 AT TIME STEP      1, STRESS PERIOD      6
 UBDSV4 SAVING RIVER            ON UNIT   1016 AT TIME STEP      1, STRESS PERIOD      6

 RIVER              PERIOD  6   STEP  1
 BOUNDARY      1   LAYER   1   ROW     1   COL    15   RATE    -4992.61    
 BOUNDARY      2   LAYER   1   ROW     2   COL    15   RATE    -6119.14      RIV2
 BOUNDARY      3   LAYER   1   ROW     3   COL    15   RATE    -2384.62      RIV3
 BOUNDARY      4   LAYER   1   ROW     4   COL    15   RATE    -3849.42    
 BOUNDARY      5   LAYER   1   ROW     5   COL    15   RATE    -2485.97    
 BOUNDARY      6   LAYER   1   ROW     6   COL    15   RATE    -1832.86    
 BOUNDARY      7   LAYER   1   ROW     7   COL    15   RATE    -6318.68      RIVX
 BOUNDARY      8   LAYER   1   ROW     8   COL    15   RATE    -6168.88      RIVX
 BOUNDARY      9   LAYER   1   ROW     9   COL    15   RATE    -2378.58      RIVX
 BOUNDARY     10   LAYER   1   ROW    10   COL    15   RATE    -3285.71    

 GHB LAKES          PERIOD  6   STEP  1
 BOUNDARY      1   LAYER   1   ROW     3   COL     1   RATE    -14932.2    
 BOUNDARY      2   LAYER   1   ROW     7   COL     1   RATE    -2210.91      GHB2_UPPER
 BOUNDARY      3   LAYER   1   ROW     7   COL     1   RATE    -13367.6      GHB2_LOWER
 UBDSV4 SAVING RECHARGE         ON UNIT   1016 AT TIME STEP      1, STRESS PERIOD      6

 RECHARGE           PERIOD  6   STEP  1
 BOUNDARY      1   LAYER   1   ROW     1   COL     1   RATE     827.500    
 BOUNDARY      2   LAYER   1   ROW     1   COL     2   RATE     827.500    
 BOUNDARY      3   LAYER   1   ROW     1   COL     3   RATE     827.500    
 BOUNDARY      4   LAYER   1   ROW     1   COL     4   RATE     827.500    
 BOUNDARY      5   LAYER   1   ROW     1   COL     5   RATE     827.500    
 BOUNDARY      6   LAYER   1   ROW     1   COL     6   RATE     827.500    
 BOUNDARY      7   LAYER   1   ROW     1   COL     7   RATE     827.500    
 BOUNDARY      8   LAYER   1   ROW     1   COL     8   RATE     827.500    
 BOUNDARY      9   LAYER   1   ROW     1   COL     9   RATE     827.500    
 BOUNDARY     10   LAYER   1   ROW     1   COL    10   RATE     827.500    
 BOUNDARY     11   LAYER   1   ROW     1   COL    11   RATE     827.500    
 BOUNDARY     12   LAYER   1   ROW     1   COL    12   RATE     827.500    
 BOUNDARY     13   LAYER   1   ROW     1   COL    13   RATE     827.500    
 BOUNDARY     14   LAYER   1   ROW     1   COL    14   RATE     827.500    
 BOUNDARY     15   LAYER   1   ROW     1   COL    15   RATE     827.500    
 BOUNDARY     16   LAYER   1   ROW     2   COL     1   RATE     827.500    
 BOUNDARY     17   LAYER   1   ROW     2   COL     2   RATE     827.500    
 BOUNDARY     18   LAYER   1   ROW     2   COL     3   RATE     827.500    
 BOUNDARY     19   LAYER   1   ROW     2   COL     4   RATE     827.500    
 BOUNDARY     20   LAYER   1   ROW     2   COL     5   RATE     827.500    
 BOUNDARY     21   LAYER   1   ROW     2   COL     6   RATE     827.500    
 BOUNDARY     22   LAYER   1   ROW     2   COL     7   RATE     827.500    
 BOUNDARY     23   LAYER   1   ROW     2   COL     8   RATE     827.500    
 BOUNDARY     24   LAYER   1   ROW     2   COL     9   RATE     827.500    
 BOUNDARY     25   LAYER   1   ROW     2   COL    10   RATE     827.500    
 BOUNDARY     26   LAYER   1   ROW     2   COL    11   RATE     827.500    
 BOUNDARY     27   LAYER   1   ROW     2   COL    12   RATE     827.500    
 BOUNDARY     28   LAYER   1   ROW     2   COL    13   RATE     827.500    
 BOUNDARY     29   LAYER   1   ROW     2   COL    14   RATE     827.500    
 BOUNDARY     30   LAYER   1   ROW     2   COL    15   RATE     827.500    
 BOUNDARY     31   LAYER   1   ROW     3   COL     1   RATE     827.500    
 BOUNDARY     32   LAYER   1   ROW     3   COL     2   RATE     827.500    
 BOUNDARY     33   LAYER   1   ROW     3   COL     3   RATE     827.500    
 BOUNDARY     34   LAYER   1   ROW     3   COL     4   RATE     827.500    
 BOUNDARY     35   LAYER   1   ROW     3   COL     5   RATE     827.500    
 BOUNDARY     36   LAYER   1   ROW     3   COL     6   RATE     827.500    
 BOUNDARY     37   LAYER   1   ROW     3   COL     7   RATE     827.500    
 BOUNDARY     38   LAYER   1   ROW     3   COL     8   RATE     827.500    
 BOUNDARY     39   LAYER   1   ROW     3   COL     9   RATE     827.500    
 BOUNDARY     40   LAYER   1   ROW     3   COL    10   RATE     827.500    
 BOUNDARY     41   LAYER   1   ROW     3   COL    11   RATE     827.500    
 BOUNDARY     42   LAYER   1   ROW     3   COL    12   RATE     827.500    
 BOUNDARY     43   LAYER   1   ROW     3   COL    13   RATE     827.500    
 BOUNDARY     44   LAYER   1   ROW     3   COL    14   RATE     827.500    
 BOUNDARY     45   LAYER   1   ROW     3   COL    15   RATE     827.500    
 BOUNDARY     46   LAYER   1   ROW     4   COL     1   RATE     827.500    
 BOUNDARY     47   LAYER   1   ROW     4   COL     2   RATE     827.500    
 BOUNDARY     48   LAYER   1   ROW     4   COL     3   RATE     827.500    
 BOUNDARY     49   LAYER   1   ROW     4   COL     4   RATE     827.500    
 BOUNDARY     50   LAYER   1   ROW     4   COL     5   RATE     827.500    
 BOUNDARY     51   LAYER   1   ROW     4   COL     6   RATE     827.500    
 BOUNDARY     52   LAYER   1   ROW     4   COL     7   RATE     827.500    
 BOUNDARY     53   LAYER   1   ROW     4   COL     8   RATE     827.500    
 BOUNDARY     54   LAYER   1   ROW     4   COL     9   RATE     827.500    
 BOUNDARY     55   LAYER   1   ROW     4   COL    10   RATE     827.500    
 BOUNDARY     56   LAYER   1   ROW     4   COL    11   RATE     827.500    
 BOUNDARY     57   LAYER   1   ROW     4   COL    12   RATE     827.500    
 BOUNDARY     58   LAYER   1   ROW     4   COL    13   RATE     827.500    
 BOUNDARY     59   LAYER   1   ROW     4   COL    14   RATE     827.500    
 BOUNDARY     60   LAYER   1   ROW     4   COL    15   RATE     827.500    
 BOUNDARY     61   LAYER   1   ROW     5   COL     1   RATE     827.500    
 BOUNDARY     62   LAYER   1   ROW     5   COL     2   RATE     827.500    
 BOUNDARY     63   LAYER   1   ROW     5   COL     3   RATE     827.500    
 BOUNDARY     64   LAYER   1   ROW     5   COL     4   RATE     827.500    
 BOUNDARY     65   LAYER   1   ROW     5   COL     5   RATE     827.500    
 BOUNDARY     66   LAYER   1   ROW     5   COL     6   RATE     827.500    
 BOUNDARY     67   LAYER   1   ROW     5   COL     7   RATE     827.500    
 BOUNDARY     68   LAYER   1   ROW     5   COL     8   RATE     827.500    
 BOUNDARY     69   LAYER   1   ROW     5   COL     9   RATE     827.500    
 BOUNDARY     70   LAYER   1   ROW     5   COL    10   RATE     827.500    
 BOUNDARY     71   LAYER   1   ROW     5   COL    11   RATE     827.500    
 BOUNDARY     72   LAYER   1   ROW     5   COL    12   RATE     827.500    
 BOUNDARY     73   LAYER   1   ROW     5   COL    13   RATE     827.500    
 BOUNDARY     74   LAYER   1   ROW     5   COL    14   RATE     827.500    
 BOUNDARY     75   LAYER   1   ROW     5   COL    15   RATE     827.500    
 BOUNDARY     76   LAYER   1   ROW     6   COL     1   RATE     827.500    
 BOUNDARY     77   LAYER   1   ROW     6   COL     2   RATE     827.500    
 BOUNDARY     78   LAYER   1   ROW     6   COL     3   RATE     827.500    
 BOUNDARY     79   LAYER   1   ROW     6   COL     4   RATE     827.500    
 BOUNDARY     80   LAYER   1   ROW     6   COL     5   RATE     827.500    
 BOUNDARY     81   LAYER   1   ROW     6   COL     6   RATE     827.500    
 BOUNDARY     82   LAYER   1   ROW     6   COL     7   RATE     827.500    
 BOUNDARY     83   LAYER   1   ROW     6   COL     8   RATE     827.500    
 BOUNDARY     84   LAYER   1   ROW     6   COL     9   RATE     827.500    
 BOUNDARY     85   LAYER   1   ROW     6   COL    10   RATE     827.500    
 BOUNDARY     86   LAYER   1   ROW     6   COL    11   RATE     827.500    
 BOUNDARY     87   LAYER   1   ROW     6   COL    12   RATE     827.500    
 BOUNDARY     88   LAYER   1   ROW     6   COL    13   RATE     827.500    
 BOUNDARY     89   LAYER   1   ROW     6   COL    14   RATE     827.500    
 BOUNDARY     90   LAYER   1   ROW     6   COL    15   RATE     827.500    
 BOUNDARY     91   LAYER   1   ROW     7   COL     1   RATE     827.500    
 BOUNDARY     92   LAYER   1   ROW     7   COL     2   RATE     827.500    
 BOUNDARY     93   LAYER   1   ROW     7   COL     3   RATE     827.500    
 BOUNDARY     94   LAYER   1   ROW     7   COL     4   RATE     827.500    
 BOUNDARY     95   LAYER   1   ROW     7   COL     5   RATE     827.500    
 BOUNDARY     96   LAYER   1   ROW     7   COL     6   RATE     827.500    
 BOUNDARY     97   LAYER   1   ROW     7   COL     7   RATE     827.500    
 BOUNDARY     98   LAYER   1   ROW     7   COL     8   RATE     827.500    
 BOUNDARY     99   LAYER   1   ROW     7   COL     9   RATE     827.500    
 BOUNDARY    100   LAYER   1   ROW     7   COL    10   RATE     827.500    
 BOUNDARY    101   LAYER   1   ROW     7   COL    11   RATE     827.500    
 BOUNDARY    102   LAYER   1   ROW     7   COL    12   RATE     827.500    
 BOUNDARY    103   LAYER   1   ROW     7   COL    13   RATE     827.500    
 BOUNDARY    104   LAYER   1   ROW     7   COL    14   RATE     827.500    
 BOUNDARY    105   LAYER   1   ROW     7   COL    15   RATE     827.500    
 BOUNDARY    106   LAYER   1   ROW     8   COL     1   RATE     827.500    
 BOUNDARY    107   LAYER   1   ROW     8   COL     2   RATE     827.500    
 BOUNDARY    108   LAYER   1   ROW     8   COL     3   RATE     827.500    
 BOUNDARY    109   LAYER   1   ROW     8   COL     4   RATE     827.500    
 BOUNDARY    110   LAYER   1   ROW     8   COL     5   RATE     827.500    
 BOUNDARY    111   LAYER   1   ROW     8   COL     6   RATE     827.500    
 BOUNDARY    112   LAYER   1   ROW     8   COL     7   RATE     827.500    
 BOUNDARY    113   LAYER   1   ROW     8   COL     8   RATE     827.500    
 BOUNDARY    114   LAYER   1   ROW     8   COL     9   RATE     827.500    
 BOUNDARY    115   LAYER   1   ROW     8   COL    10   RATE     827.500    
 BOUNDARY    116   LAYER   1   ROW     8   COL    11   RATE     827.500    
 BOUNDARY    117   LAYER   1   ROW     8   COL    12   RATE     827.500    
 BOUNDARY    118   LAYER   1   ROW     8   COL    13   RATE     827.500    
 BOUNDARY    119   LAYER   1   ROW     8   COL    14   RATE     827.500    
 BOUNDARY    120   LAYER   1   ROW     8   COL    15   RATE     827.500    
 BOUNDARY    121   LAYER   1   ROW     9   COL     1   RATE     827.500    
 BOUNDARY    122   LAYER   1   ROW     9   COL     2   RATE     827.500    
 BOUNDARY    123   LAYER   1   ROW     9   COL     3   RATE     827.500    
 BOUNDARY    124   LAYER   1   ROW     9   COL     4   RATE     827.500    
 BOUNDARY    125   LAYER   1   ROW     9   COL     5   RATE     827.500    
 BOUNDARY    126   LAYER   1   ROW     9   COL     6   RATE     827.500    
 BOUNDARY    127   LAYER   1   ROW     9   COL     7   RATE     827.500    
 BOUNDARY    128   LAYER   1   ROW     9   COL     8   RATE     827.500    
 BOUNDARY    129   LAYER   1   ROW     9   COL     9   RATE     827.500    
 BOUNDARY    130   LAYER   1   ROW     9   COL    10   RATE     827.500    
 BOUNDARY    131   LAYER   1   ROW     9   COL    11   RATE     827.500    
 BOUNDARY    132   LAYER   1   ROW     9   COL    12   RATE     827.500    
 BOUNDARY    133   LAYER   1   ROW     9   COL    13   RATE     827.500    
 BOUNDARY    134   LAYER   1   ROW     9   COL    14   RATE     827.500    
 BOUNDARY    135   LAYER   1   ROW     9   COL    15   RATE     827.500    
 BOUNDARY    136   LAYER   1   ROW    10   COL     1   RATE     827.500    
 BOUNDARY    137   LAYER   1   ROW    10   COL     2   RATE     827.500    
 BOUNDARY    138   LAYER   1   ROW    10   COL     3   RATE     827.500    
 BOUNDARY    139   LAYER   1   ROW    10   COL     4   RATE     827.500    
 BOUNDARY    140   LAYER   1   ROW    10   COL     5   RATE     827.500    
 BOUNDARY    141   LAYER   1   ROW    10   COL     6   RATE     827.500    
 BOUNDARY    142   LAYER   1   ROW    10   COL     7   RATE     827.500    
 BOUNDARY    143   LAYER   1   ROW    10   COL     8   RATE     827.500    
 BOUNDARY    144   LAYER   1   ROW    10   COL     9   RATE     827.500    
 BOUNDARY    145   LAYER   1   ROW    10   COL    10   RATE     827.500    
 BOUNDARY    146   LAYER   1   ROW    10   COL    11   RATE     827.500    
 BOUNDARY    147   LAYER   1   ROW    10   COL    12   RATE     827.500    
 BOUNDARY    148   LAYER   1   ROW    10   COL    13   RATE     827.500    
 BOUNDARY    149   LAYER   1   ROW    10   COL    14   RATE     827.500    
 BOUNDARY    150   LAYER   1   ROW    10   COL    15   RATE     827.500    
 UBDSV4 SAVING ET SEGS          ON UNIT   1016 AT TIME STEP      1, STRESS PERIOD      6

 ET SEGS            PERIOD  6   STEP  1
 BOUNDARY      1   LAYER   1   ROW     1   COL     1   RATE    -3.89453    
 BOUNDARY      2   LAYER   1   ROW     1   COL     2   RATE    -12.5053    
 BOUNDARY      3   LAYER   1   ROW     1   COL     3   RATE    -81.6007    
 BOUNDARY      4   LAYER   1   ROW     1   COL     4   RATE    -113.438    
 BOUNDARY      5   LAYER   1   ROW     1   COL     5   RATE    -113.438    
 BOUNDARY      6   LAYER   1   ROW     1   COL     6   RATE    -113.438    
 BOUNDARY      7   LAYER   1   ROW     1   COL     7   RATE    -113.438    
 BOUNDARY      8   LAYER   1   ROW     1   COL     8   RATE    -113.438    
 BOUNDARY      9   LAYER   1   ROW     1   COL     9   RATE    -113.438    
 BOUNDARY     10   LAYER   1   ROW     1   COL    10   RATE    -113.438    
 BOUNDARY     11   LAYER   1   ROW     1   COL    11   RATE    -113.438    
 BOUNDARY     12   LAYER   1   ROW     1   COL    12   RATE    -24.1846    
 BOUNDARY     13   LAYER   1   ROW     1   COL    13   RATE   -0.505977    
 BOUNDARY     14   LAYER   1   ROW     1   COL    14   RATE     0.00000    
 BOUNDARY     15   LAYER   1   ROW     1   COL    15   RATE     0.00000    
 BOUNDARY     16   LAYER   1   ROW     2   COL     1   RATE     0.00000    
 BOUNDARY     17   LAYER   1   ROW     2   COL     2   RATE    -6.53844    
 BOUNDARY     18   LAYER   1   ROW     2   COL     3   RATE    -49.7586    
 BOUNDARY     19   LAYER   1   ROW     2   COL     4   RATE    -113.438    
 BOUNDARY     20   LAYER   1   ROW     2   COL     5   RATE    -113.438    
 BOUNDARY     21   LAYER   1   ROW     2   COL     6   RATE    -113.438    
 BOUNDARY     22   LAYER   1   ROW     2   COL     7   RATE    -113.438    
 BOUNDARY     23   LAYER   1   ROW     2   COL     8   RATE    -113.438    
 BOUNDARY     24   LAYER   1   ROW     2   COL     9   RATE    -113.438    
 BOUNDARY     25   LAYER   1   ROW     2   COL    10   RATE    -113.438    
 BOUNDARY     26   LAYER   1   ROW     2   COL    11   RATE    -113.438    
 BOUNDARY     27   LAYER   1   ROW     2   COL    12   RATE    -26.1628    
 BOUNDARY     28   LAYER   1   ROW     2   COL    13   RATE    -1.62443    
 BOUNDARY     29   LAYER   1   ROW     2   COL    14   RATE     0.00000    
 BOUNDARY     30   LAYER   1   ROW     2   COL    15   RATE     0.00000    
 BOUNDARY     31   LAYER   1   ROW     3   COL     1   RATE     0.00000    
 BOUNDARY     32   LAYER   1   ROW     3   COL     2   RATE     0.00000    
 BOUNDARY     33   LAYER   1   ROW     3   COL     3   RATE    -30.2485    
 BOUNDARY     34   LAYER   1   ROW     3   COL     4   RATE    -113.438    
 BOUNDARY     35   LAYER   1   ROW     3   COL     5   RATE    -113.438    
 BOUNDARY     36   LAYER   1   ROW     3   COL     6   RATE    -113.438    
 BOUNDARY     37   LAYER   1   ROW     3   COL     7   RATE    -113.438    
 BOUNDARY     38   LAYER   1   ROW     3   COL     8   RATE    -113.438    
 BOUNDARY     39   LAYER   1   ROW     3   COL     9   RATE    -113.438    
 BOUNDARY     40   LAYER   1   ROW     3   COL    10   RATE    -113.438    
 BOUNDARY     41   LAYER   1   ROW     3   COL    11   RATE    -113.438    
 BOUNDARY     42   LAYER   1   ROW     3   COL    12   RATE    -29.4948    
 BOUNDARY     43   LAYER   1   ROW     3   COL    13   RATE    -3.66078    
 BOUNDARY     44   LAYER   1   ROW     3   COL    14   RATE     0.00000    
 BOUNDARY     45   LAYER   1   ROW     3   COL    15   RATE     0.00000    
 BOUNDARY     46   LAYER   1   ROW     4   COL     1   RATE     0.00000    
 BOUNDARY     47   LAYER   1   ROW     4   COL     2   RATE    -4.82370    
 BOUNDARY     48   LAYER   1   ROW     4   COL     3   RATE    -37.4031    
 BOUNDARY     49   LAYER   1   ROW     4   COL     4   RATE    -113.438    
 BOUNDARY     50   LAYER   1   ROW     4   COL     5   RATE    -113.438    
 BOUNDARY     51   LAYER   1   ROW     4   COL     6   RATE    -113.438    
 BOUNDARY     52   LAYER   1   ROW     4   COL     7   RATE    -113.438    
 BOUNDARY     53   LAYER   1   ROW     4   COL     8   RATE    -113.438    
 BOUNDARY     54   LAYER   1   ROW     4   COL     9   RATE    -113.438    
 BOUNDARY     55   LAYER   1   ROW     4   COL    10   RATE    -113.438    
 BOUNDARY     56   LAYER   1   ROW     4   COL    11   RATE    -113.438    
 BOUNDARY     57   LAYER   1   ROW     4   COL    12   RATE    -32.6504    
 BOUNDARY     58   LAYER   1   ROW     4   COL    13   RATE    -5.30393    
 BOUNDARY     59   LAYER   1   ROW     4   COL    14   RATE     0.00000    
 BOUNDARY     60   LAYER   1   ROW     4   COL    15   RATE     0.00000    
 BOUNDARY     61   LAYER   1   ROW     5   COL     1   RATE     0.00000    
 BOUNDARY     62   LAYER   1   ROW     5   COL     2   RATE    -8.21669    
 BOUNDARY     63   LAYER   1   ROW     5   COL     3   RATE    -60.8280    
 BOUNDARY     64   LAYER   1   ROW     5   COL     4   RATE    -113.438    
 BOUNDARY     65   LAYER   1   ROW     5   COL     5   RATE    -113.438    
 BOUNDARY     66   LAYER   1   ROW     5   COL     6   RATE    -113.438    
 BOUNDARY     67   LAYER   1   ROW     5   COL     7   RATE    -113.438    
 BOUNDARY     68   LAYER   1   ROW     5   COL     8   RATE    -113.438    
 BOUNDARY     69   LAYER   1   ROW     5   COL     9   RATE    -113.438    
 BOUNDARY     70   LAYER   1   ROW     5   COL    10   RATE    -113.438    
 BOUNDARY     71   LAYER   1   ROW     5   COL    11   RATE    -113.438    
 BOUNDARY     72   LAYER   1   ROW     5   COL    12   RATE    -38.1111    
 BOUNDARY     73   LAYER   1   ROW     5   COL    13   RATE    -6.30022    
 BOUNDARY     74   LAYER   1   ROW     5   COL    14   RATE     0.00000    
 BOUNDARY     75   LAYER   1   ROW     5   COL    15   RATE     0.00000    
 BOUNDARY     76   LAYER   1   ROW     6   COL     1   RATE     0.00000    
 BOUNDARY     77   LAYER   1   ROW     6   COL     2   RATE    -6.56353    
 BOUNDARY     78   LAYER   1   ROW     6   COL     3   RATE    -65.0508    
 BOUNDARY     79   LAYER   1   ROW     6   COL     4   RATE    -113.438    
 BOUNDARY     80   LAYER   1   ROW     6   COL     5   RATE    -113.438    
 BOUNDARY     81   LAYER   1   ROW     6   COL     6   RATE    -113.438    
 BOUNDARY     82   LAYER   1   ROW     6   COL     7   RATE    -113.438    
 BOUNDARY     83   LAYER   1   ROW     6   COL     8   RATE    -113.438    
 BOUNDARY     84   LAYER   1   ROW     6   COL     9   RATE    -113.438    
 BOUNDARY     85   LAYER   1   ROW     6   COL    10   RATE    -113.438    
 BOUNDARY     86   LAYER   1   ROW     6   COL    11   RATE    -113.438    
 BOUNDARY     87   LAYER   1   ROW     6   COL    12   RATE    -41.8823    
 BOUNDARY     88   LAYER   1   ROW     6   COL    13   RATE    -6.24277    
 BOUNDARY     89   LAYER   1   ROW     6   COL    14   RATE     0.00000    
 BOUNDARY     90   LAYER   1   ROW     6   COL    15   RATE     0.00000    
 BOUNDARY     91   LAYER   1   ROW     7   COL     1   RATE     0.00000    
 BOUNDARY     92   LAYER   1   ROW     7   COL     2   RATE    -2.51208    
 BOUNDARY     93   LAYER   1   ROW     7   COL     3   RATE    -72.7664    
 BOUNDARY     94   LAYER   1   ROW     7   COL     4   RATE    -113.438    
 BOUNDARY     95   LAYER   1   ROW     7   COL     5   RATE    -113.438    
 BOUNDARY     96   LAYER   1   ROW     7   COL     6   RATE    -113.438    
 BOUNDARY     97   LAYER   1   ROW     7   COL     7   RATE    -113.438    
 BOUNDARY     98   LAYER   1   ROW     7   COL     8   RATE    -113.438    
 BOUNDARY     99   LAYER   1   ROW     7   COL     9   RATE    -113.438    
 BOUNDARY    100   LAYER   1   ROW     7   COL    10   RATE    -113.438    
 BOUNDARY    101   LAYER   1   ROW     7   COL    11   RATE    -113.438    
 BOUNDARY    102   LAYER   1   ROW     7   COL    12   RATE    -41.0657    
 BOUNDARY    103   LAYER   1   ROW     7   COL    13   RATE    -5.43484    
 BOUNDARY    104   LAYER   1   ROW     7   COL    14   RATE     0.00000    
 BOUNDARY    105   LAYER   1   ROW     7   COL    15   RATE     0.00000    
 BOUNDARY    106   LAYER   1   ROW     8   COL     1   RATE     0.00000    
 BOUNDARY    107   LAYER   1   ROW     8   COL     2   RATE    -17.6459    
 BOUNDARY    108   LAYER   1   ROW     8   COL     3   RATE    -113.438    
 BOUNDARY    109   LAYER   1   ROW     8   COL     4   RATE    -113.438    
 BOUNDARY    110   LAYER   1   ROW     8   COL     5   RATE    -113.438    
 BOUNDARY    111   LAYER   1   ROW     8   COL     6   RATE    -113.438    
 BOUNDARY    112   LAYER   1   ROW     8   COL     7   RATE    -113.438    
 BOUNDARY    113   LAYER   1   ROW     8   COL     8   RATE    -113.438    
 BOUNDARY    114   LAYER   1   ROW     8   COL     9   RATE    -113.438    
 BOUNDARY    115   LAYER   1   ROW     8   COL    10   RATE    -113.438    
 BOUNDARY    116   LAYER   1   ROW     8   COL    11   RATE    -113.438    
 BOUNDARY    117   LAYER   1   ROW     8   COL    12   RATE    -43.5935    
 BOUNDARY    118   LAYER   1   ROW     8   COL    13   RATE    -5.48146    
 BOUNDARY    119   LAYER   1   ROW     8   COL    14   RATE     0.00000    
 BOUNDARY    120   LAYER   1   ROW     8   COL    15   RATE     0.00000    
 BOUNDARY    121   LAYER   1   ROW     9   COL     1   RATE    -26.2909    
 BOUNDARY    122   LAYER   1   ROW     9   COL     2   RATE    -94.7562    
 BOUNDARY    123   LAYER   1   ROW     9   COL     3   RATE    -113.438    
 BOUNDARY    124   LAYER   1   ROW     9   COL     4   RATE    -113.438    
 BOUNDARY    125   LAYER   1   ROW     9   COL     5   RATE    -113.438    
 BOUNDARY    126   LAYER   1   ROW     9   COL     6   RATE    -113.438    
 BOUNDARY    127   LAYER   1   ROW     9   COL     7   RATE    -113.438    
 BOUNDARY    128   LAYER   1   ROW     9   COL     8   RATE    -113.438    
 BOUNDARY    129   LAYER   1   ROW     9   COL     9   RATE    -113.438    
 BOUNDARY    130   LAYER   1   ROW     9   COL    10   RATE    -113.438    
 BOUNDARY    131   LAYER   1   ROW     9   COL    11   RATE    -113.438    
 BOUNDARY    132   LAYER   1   ROW     9   COL    12   RATE    -50.3148    
 BOUNDARY    133   LAYER   1   ROW     9   COL    13   RATE    -6.46673    
 BOUNDARY    134   LAYER   1   ROW     9   COL    14   RATE     0.00000    
 BOUNDARY    135   LAYER   1   ROW     9   COL    15   RATE     0.00000    
 BOUNDARY    136   LAYER   1   ROW    10   COL     1   RATE    -103.946    
 BOUNDARY    137   LAYER   1   ROW    10   COL     2   RATE    -113.438    
 BOUNDARY    138   LAYER   1   ROW    10   COL     3   RATE    -113.438    
 BOUNDARY    139   LAYER   1   ROW    10   COL     4   RATE    -113.438    
 BOUNDARY    140   LAYER   1   ROW    10   COL     5   RATE    -113.438    
 BOUNDARY    141   LAYER   1   ROW    10   COL     6   RATE    -113.438    
 BOUNDARY    142   LAYER   1   ROW    10   COL     7   RATE    -113.438    
 BOUNDARY    143   LAYER   1   ROW    10   COL     8   RATE    -113.438    
 BOUNDARY    144   LAYER   1   ROW    10   COL     9   RATE    -113.438    
 BOUNDARY    145   LAYER   1   ROW    10   COL    10   RATE    -113.438    
 BOUNDARY    146   LAYER   1   ROW    10   COL    11   RATE    -113.438    
 BOUNDARY    147   LAYER   1   ROW    10   COL    12   RATE    -55.1213    
 BOUNDARY    148   LAYER   1   ROW    10   COL    13   RATE    -7.09434    
 BOUNDARY    149   LAYER   1   ROW    10   COL    14   RATE     0.00000    
 BOUNDARY    150   LAYER   1   ROW    10   COL    15   RATE     0.00000    

 HEAD WILL BE SAVED ON UNIT 1017 AT END OF TIME STEP    1, STRESS PERIOD    6
RIV   no.    1 value from time series:   101.00     for time:  122.0     to  123.0    
RIV   no.    2 value from time series:   101.00     for time:  122.0     to  123.0    
RIV   no.    3 value from time series:   111.50     for time:  122.0     to  123.0    
RIV   no.    4 value from time series:   111.50     for time:  122.0     to  123.0    
RIV   no.    5 value from time series:   115.10     for time:  122.0     to  123.0    
RIV   no.    6 value from time series:   115.10     for time:  122.0     to  123.0    
RIV   no.    7 value from time series:   104.00     for time:  122.0     to  123.0    
RIV   no.    8 value from time series:   104.00     for time:  122.0     to  123.0    
RIV   no.    9 value from time series:   113.50     for time:  122.0     to  123.0    
RIV   no.   10 value from time series:   113.50     for time:  122.0     to  123.0    
RIV   no.    1 value from time series:   101.00     for time:  122.0     to  123.0    
RIV   no.    2 value from time series:   101.00     for time:  122.0     to  123.0    
RIV   no.    3 value from time series:   111.50     for time:  122.0     to  123.0    
RIV   no.    4 value from time series:   111.50     for time:  122.0     to  123.0    
RIV   no.    5 value from time series:   115.10     for time:  122.0     to  123.0    
RIV   no.    6 value from time series:   115.10     for time:  122.0     to  123.0    
RIV   no.    7 value from time series:   104.00     for time:  122.0     to  123.0    
RIV   no.    8 value from time series:   104.00     for time:  122.0     to  123.0    
RIV   no.    9 value from time series:   113.50     for time:  122.0     to  123.0    
RIV   no.   10 value from time series:   113.50     for time:  122.0     to  123.0    

 OUTPUT CONTROL FOR STRESS PERIOD    6   TIME STEP    2
    SAVE BUDGET
    SAVE HEAD
    SAVE HEAD FOR ALL LAYERS
 UBDSV1 SAVING          STORAGE ON UNIT   1016 AT TIME STEP      2, STRESS PERIOD      6
 UBDSV1 SAVING FLOW RIGHT FACE  ON UNIT   1016 AT TIME STEP      2, STRESS PERIOD      6
 UBDSV1 SAVING FLOW FRONT FACE  ON UNIT   1016 AT TIME STEP      2, STRESS PERIOD      6
 UBDSV1 SAVING FLOW LOWER FACE  ON UNIT   1016 AT TIME STEP      2, STRESS PERIOD      6
 UBDSV4 SAVING WELLS NEAR RIVER ON UNIT   1016 AT TIME STEP      2, STRESS PERIOD      6
 UBDSV4 SAVING RIVER            ON UNIT   1016 AT TIME STEP      2, STRESS PERIOD      6

 RIVER              PERIOD  6   STEP  2
 BOUNDARY      1   LAYER   1   ROW     1   COL    15   RATE    -4997.06    
 BOUNDARY      2   LAYER   1   ROW     2   COL    15   RATE    -6123.66      RIV2
 BOUNDARY      3   LAYER   1   ROW     3   COL    15   RATE    -2389.07      RIV3
 BOUNDARY      4   LAYER   1   ROW     4   COL    15   RATE    -3853.91    
 BOUNDARY      5   LAYER   1   ROW     5   COL    15   RATE    -2490.41    
 BOUNDARY      6   LAYER   1   ROW     6   COL    15   RATE    -1837.28    
 BOUNDARY      7   LAYER   1   ROW     7   COL    15   RATE    -6323.26      RIVX
 BOUNDARY      8   LAYER   1   ROW     8   COL    15   RATE    -6173.52      RIVX
 BOUNDARY      9   LAYER   1   ROW     9   COL    15   RATE    -2383.18      RIVX
 BOUNDARY     10   LAYER   1   ROW    10   COL    15   RATE    -3290.39    

 GHB LAKES          PERIOD  6   STEP  2
 BOUNDARY      1   LAYER   1   ROW     3   COL     1   RATE    -14940.6    
 BOUNDARY      2   LAYER   1   ROW     7   COL     1   RATE    -2217.43      GHB2_UPPER
 BOUNDARY      3   LAYER   1   ROW     7   COL     1   RATE    -13370.0      GHB2_LOWER
 UBDSV4 SAVING RECHARGE         ON UNIT   1016 AT TIME STEP      2, STRESS PERIOD      6

 RECHARGE           PERIOD  6   STEP  2
 BOUNDARY      1   LAYER   1   ROW     1   COL     1   RATE     829.167    
 BOUNDARY      2   LAYER   1   ROW     1   COL     2   RATE     829.167    
 BOUNDARY      3   LAYER   1   ROW     1   COL     3   RATE     829.167    
 BOUNDARY      4   LAYER   1   ROW     1   COL     4   RATE     829.167    
 BOUNDARY      5   LAYER   1   ROW     1   COL     5   RATE     829.167    
 BOUNDARY      6   LAYER   1   ROW     1   COL     6   RATE     829.167    
 BOUNDARY      7   LAYER   1   ROW     1   COL     7   RATE     829.167    
 BOUNDARY      8   LAYER   1   ROW     1   COL     8   RATE     829.167    
 BOUNDARY      9   LAYER   1   ROW     1   COL     9   RATE     829.167    
 BOUNDARY     10   LAYER   1   ROW     1   COL    10   RATE     829.167    
 BOUNDARY     11   LAYER   1   ROW     1   COL    11   RATE     829.167    
 BOUNDARY     12   LAYER   1   ROW     1   COL    12   RATE     829.167    
 BOUNDARY     13   LAYER   1   ROW     1   COL    13   RATE     829.167    
 BOUNDARY     14   LAYER   1   ROW     1   COL    14   RATE     829.167    
 BOUNDARY     15   LAYER   1   ROW     1   COL    15   RATE     829.167    
 BOUNDARY     16   LAYER   1   ROW     2   COL     1   RATE     829.167    
 BOUNDARY     17   LAYER   1   ROW     2   COL     2   RATE     829.167    
 BOUNDARY     18   LAYER   1   ROW     2   COL     3   RATE     829.167    
 BOUNDARY     19   LAYER   1   ROW     2   COL     4   RATE     829.167    
 BOUNDARY     20   LAYER   1   ROW     2   COL     5   RATE     829.167    
 BOUNDARY     21   LAYER   1   ROW     2   COL     6   RATE     829.167    
 BOUNDARY     22   LAYER   1   ROW     2   COL     7   RATE     829.167    
 BOUNDARY     23   LAYER   1   ROW     2   COL     8   RATE     829.167    
 BOUNDARY     24   LAYER   1   ROW     2   COL     9   RATE     829.167    
 BOUNDARY     25   LAYER   1   ROW     2   COL    10   RATE     829.167    
 BOUNDARY     26   LAYER   1   ROW     2   COL    11   RATE     829.167    
 BOUNDARY     27   LAYER   1   ROW     2   COL    12   RATE     829.167    
 BOUNDARY     28   LAYER   1   ROW     2   COL    13   RATE     829.167    
 BOUNDARY     29   LAYER   1   ROW     2   COL    14   RATE     829.167    
 BOUNDARY     30   LAYER   1   ROW     2   COL    15   RATE     829.167    
 BOUNDARY     31   LAYER   1   ROW     3   COL     1   RATE     829.167    
 BOUNDARY     32   LAYER   1   ROW     3   COL     2   RATE     829.167    
 BOUNDARY     33   LAYER   1   ROW     3   COL     3   RATE     829.167    
 BOUNDARY     34   LAYER   1   ROW     3   COL     4   RATE     829.167    
 BOUNDARY     35   LAYER   1   ROW     3   COL     5   RATE     829.167    
 BOUNDARY     36   LAYER   1   ROW     3   COL     6   RATE     829.167    
 BOUNDARY     37   LAYER   1   ROW     3   COL     7   RATE     829.167    
 BOUNDARY     38   LAYER   1   ROW     3   COL     8   RATE     829.167    
 BOUNDARY     39   LAYER   1   ROW     3   COL     9   RATE     829.167    
 BOUNDARY     40   LAYER   1   ROW     3   COL    10   RATE     829.167    
 BOUNDARY     41   LAYER   1   ROW     3   COL    11   RATE     829.167    
 BOUNDARY     42   LAYER   1   ROW     3   COL    12   RATE     829.167    
 BOUNDARY     43   LAYER   1   ROW     3   COL    13   RATE     829.167    
 BOUNDARY     44   LAYER   1   ROW     3   COL    14   RATE     829.167    
 BOUNDARY     45   LAYER   1   ROW     3   COL    15   RATE     829.167    
 BOUNDARY     46   LAYER   1   ROW     4   COL     1   RATE     829.167    
 BOUNDARY     47   LAYER   1   ROW     4   COL     2   RATE     829.167    
 BOUNDARY     48   LAYER   1   ROW     4   COL     3   RATE     829.167    
 BOUNDARY     49   LAYER   1   ROW     4   COL     4   RATE     829.167    
 BOUNDARY     50   LAYER   1   ROW     4   COL     5   RATE     829.167    
 BOUNDARY     51   LAYER   1   ROW     4   COL     6   RATE     829.167    
 BOUNDARY     52   LAYER   1   ROW     4   COL     7   RATE     829.167    
 BOUNDARY     53   LAYER   1   ROW     4   COL     8   RATE     829.167    
 BOUNDARY     54   LAYER   1   ROW     4   COL     9   RATE     829.167    
 BOUNDARY     55   LAYER   1   ROW     4   COL    10   RATE     829.167    
 BOUNDARY     56   LAYER   1   ROW     4   COL    11   RATE     829.167    
 BOUNDARY     57   LAYER   1   ROW     4   COL    12   RATE     829.167    
 BOUNDARY     58   LAYER   1   ROW     4   COL    13   RATE     829.167    
 BOUNDARY     59   LAYER   1   ROW     4   COL    14   RATE     829.167    
 BOUNDARY     60   LAYER   1   ROW     4   COL    15   RATE     829.167    
 BOUNDARY     61   LAYER   1   ROW     5   COL     1   RATE     829.167    
 BOUNDARY     62   LAYER   1   ROW     5   COL     2   RATE     829.167    
 BOUNDARY     63   LAYER   1   ROW     5   COL     3   RATE     829.167    
 BOUNDARY     64   LAYER   1   ROW     5   COL     4   RATE     829.167    
 BOUNDARY     65   LAYER   1   ROW     5   COL     5   RATE     829.167    
 BOUNDARY     66   LAYER   1   ROW     5   COL     6   RATE     829.167    
 BOUNDARY     67   LAYER   1   ROW     5   COL     7   RATE     829.167    
 BOUNDARY     68   LAYER   1   ROW     5   COL     8   RATE     829.167    
 BOUNDARY     69   LAYER   1   ROW     5   COL     9   RATE     829.167    
 BOUNDARY     70   LAYER   1   ROW     5   COL    10   RATE     829.167    
 BOUNDARY     71   LAYER   1   ROW     5   COL    11   RATE     829.167    
 BOUNDARY     72   LAYER   1   ROW     5   COL    12   RATE     829.167    
 BOUNDARY     73   LAYER   1   ROW     5   COL    13   RATE     829.167    
 BOUNDARY     74   LAYER   1   ROW     5   COL    14   RATE     829.167    
 BOUNDARY     75   LAYER   1   ROW     5   COL    15   RATE     829.167    
 BOUNDARY     76   LAYER   1   ROW     6   COL     1   RATE     829.167    
 BOUNDARY     77   LAYER   1   ROW     6   COL     2   RATE     829.167    
 BOUNDARY     78   LAYER   1   ROW     6   COL     3   RATE     829.167    
 BOUNDARY     79   LAYER   1   ROW     6   COL     4   RATE     829.167    
 BOUNDARY     80   LAYER   1   ROW     6   COL     5   RATE     829.167    
 BOUNDARY     81   LAYER   1   ROW     6   COL     6   RATE     829.167    
 BOUNDARY     82   LAYER   1   ROW     6   COL     7   RATE     829.167    
 BOUNDARY     83   LAYER   1   ROW     6   COL     8   RATE     829.167    
 BOUNDARY     84   LAYER   1   ROW     6   COL     9   RATE     829.167    
 BOUNDARY     85   LAYER   1   ROW     6   COL    10   RATE     829.167    
 BOUNDARY     86   LAYER   1   ROW     6   COL    11   RATE     829.167    
 BOUNDARY     87   LAYER   1   ROW     6   COL    12   RATE     829.167    
 BOUNDARY     88   LAYER   1   ROW     6   COL    13   RATE     829.167    
 BOUNDARY     89   LAYER   1   ROW     6   COL    14   RATE     829.167    
 BOUNDARY     90   LAYER   1   ROW     6   COL    15   RATE     829.167    
 BOUNDARY     91   LAYER   1   ROW     7   COL     1   RATE     829.167    
 BOUNDARY     92   LAYER   1   ROW     7   COL     2   RATE     829.167    
 BOUNDARY     93   LAYER   1   ROW     7   COL     3   RATE     829.167    
 BOUNDARY     94   LAYER   1   ROW     7   COL     4   RATE     829.167    
 BOUNDARY     95   LAYER   1   ROW     7   COL     5   RATE     829.167    
 BOUNDARY     96   LAYER   1   ROW     7   COL     6   RATE     829.167    
 BOUNDARY     97   LAYER   1   ROW     7   COL     7   RATE     829.167    
 BOUNDARY     98   LAYER   1   ROW     7   COL     8   RATE     829.167    
 BOUNDARY     99   LAYER   1   ROW     7   COL     9   RATE     829.167    
 BOUNDARY    100   LAYER   1   ROW     7   COL    10   RATE     829.167    
 BOUNDARY    101   LAYER   1   ROW     7   COL    11   RATE     829.167    
 BOUNDARY    102   LAYER   1   ROW     7   COL    12   RATE     829.167    
 BOUNDARY    103   LAYER   1   ROW     7   COL    13   RATE     829.167    
 BOUNDARY    104   LAYER   1   ROW     7   COL    14   RATE     829.167    
 BOUNDARY    105   LAYER   1   ROW     7   COL    15   RATE     829.167    
 BOUNDARY    106   LAYER   1   ROW     8   COL     1   RATE     829.167    
 BOUNDARY    107   LAYER   1   ROW     8   COL     2   RATE     829.167    
 BOUNDARY    108   LAYER   1   ROW     8   COL     3   RATE     829.167    
 BOUNDARY    109   LAYER   1   ROW     8   COL     4   RATE     829.167    
 BOUNDARY    110   LAYER   1   ROW     8   COL     5   RATE     829.167    
 BOUNDARY    111   LAYER   1   ROW     8   COL     6   RATE     829.167    
 BOUNDARY    112   LAYER   1   ROW     8   COL     7   RATE     829.167    
 BOUNDARY    113   LAYER   1   ROW     8   COL     8   RATE     829.167    
 BOUNDARY    114   LAYER   1   ROW     8   COL     9   RATE     829.167    
 BOUNDARY    115   LAYER   1   ROW     8   COL    10   RATE     829.167    
 BOUNDARY    116   LAYER   1   ROW     8   COL    11   RATE     829.167    
 BOUNDARY    117   LAYER   1   ROW     8   COL    12   RATE     829.167    
 BOUNDARY    118   LAYER   1   ROW     8   COL    13   RATE     829.167    
 BOUNDARY    119   LAYER   1   ROW     8   COL    14   RATE     829.167    
 BOUNDARY    120   LAYER   1   ROW     8   COL    15   RATE     829.167    
 BOUNDARY    121   LAYER   1   ROW     9   COL     1   RATE     829.167    
 BOUNDARY    122   LAYER   1   ROW     9   COL     2   RATE     829.167    
 BOUNDARY    123   LAYER   1   ROW     9   COL     3   RATE     829.167    
 BOUNDARY    124   LAYER   1   ROW     9   COL     4   RATE     829.167    
 BOUNDARY    125   LAYER   1   ROW     9   COL     5   RATE     829.167    
 BOUNDARY    126   LAYER   1   ROW     9   COL     6   RATE     829.167    
 BOUNDARY    127   LAYER   1   ROW     9   COL     7   RATE     829.167    
 BOUNDARY    128   LAYER   1   ROW     9   COL     8   RATE     829.167    
 BOUNDARY    129   LAYER   1   ROW     9   COL     9   RATE     829.167    
 BOUNDARY    130   LAYER   1   ROW     9   COL    10   RATE     829.167    
 BOUNDARY    131   LAYER   1   ROW     9   COL    11   RATE     829.167    
 BOUNDARY    132   LAYER   1   ROW     9   COL    12   RATE     829.167    
 BOUNDARY    133   LAYER   1   ROW     9   COL    13   RATE     829.167    
 BOUNDARY    134   LAYER   1   ROW     9   COL    14   RATE     829.167    
 BOUNDARY    135   LAYER   1   ROW     9   COL    15   RATE     829.167    
 BOUNDARY    136   LAYER   1   ROW    10   COL     1   RATE     829.167    
 BOUNDARY    137   LAYER   1   ROW    10   COL     2   RATE     829.167    
 BOUNDARY    138   LAYER   1   ROW    10   COL     3   RATE     829.167    
 BOUNDARY    139   LAYER   1   ROW    10   COL     4   RATE     829.167    
 BOUNDARY    140   LAYER   1   ROW    10   COL     5   RATE     829.167    
 BOUNDARY    141   LAYER   1   ROW    10   COL     6   RATE     829.167    
 BOUNDARY    142   LAYER   1   ROW    10   COL     7   RATE     829.167    
 BOUNDARY    143   LAYER   1   ROW    10   COL     8   RATE     829.167    
 BOUNDARY    144   LAYER   1   ROW    10   COL     9   RATE     829.167    
 BOUNDARY    145   LAYER   1   ROW    10   COL    10   RATE     829.167    
 BOUNDARY    146   LAYER   1   ROW    10   COL    11   RATE     829.167    
 BOUNDARY    147   LAYER   1   ROW    10   COL    12   RATE     829.167    
 BOUNDARY    148   LAYER   1   ROW    10   COL    13   RATE     829.167    
 BOUNDARY    149   LAYER   1   ROW    10   COL    14   RATE     829.167    
 BOUNDARY    150   LAYER   1   ROW    10   COL    15   RATE     829.167    
 UBDSV4 SAVING ET SEGS          ON UNIT   1016 AT TIME STEP      2, STRESS PERIOD      6

 ET SEGS            PERIOD  6   STEP  2
 BOUNDARY      1   LAYER   1   ROW     1   COL     1   RATE    -3.94398    
 BOUNDARY      2   LAYER   1   ROW     1   COL     2   RATE    -12.6683    
 BOUNDARY      3   LAYER   1   ROW     1   COL     3   RATE    -82.5297    
 BOUNDARY      4   LAYER   1   ROW     1   COL     4   RATE    -114.062    
 BOUNDARY      5   LAYER   1   ROW     1   COL     5   RATE    -114.062    
 BOUNDARY      6   LAYER   1   ROW     1   COL     6   RATE    -114.062    
 BOUNDARY      7   LAYER   1   ROW     1   COL     7   RATE    -114.062    
 BOUNDARY      8   LAYER   1   ROW     1   COL     8   RATE    -114.062    
 BOUNDARY      9   LAYER   1   ROW     1   COL     9   RATE    -114.062    
 BOUNDARY     10   LAYER   1   ROW     1   COL    10   RATE    -114.062    
 BOUNDARY     11   LAYER   1   ROW     1   COL    11   RATE    -114.062    
 BOUNDARY     12   LAYER   1   ROW     1   COL    12   RATE    -24.4133    
 BOUNDARY     13   LAYER   1   ROW     1   COL    13   RATE   -0.536696    
 BOUNDARY     14   LAYER   1   ROW     1   COL    14   RATE     0.00000    
 BOUNDARY     15   LAYER   1   ROW     1   COL    15   RATE     0.00000    
 BOUNDARY     16   LAYER   1   ROW     2   COL     1   RATE     0.00000    
 BOUNDARY     17   LAYER   1   ROW     2   COL     2   RATE    -6.60210    
 BOUNDARY     18   LAYER   1   ROW     2   COL     3   RATE    -50.5159    
 BOUNDARY     19   LAYER   1   ROW     2   COL     4   RATE    -114.062    
 BOUNDARY     20   LAYER   1   ROW     2   COL     5   RATE    -114.062    
 BOUNDARY     21   LAYER   1   ROW     2   COL     6   RATE    -114.062    
 BOUNDARY     22   LAYER   1   ROW     2   COL     7   RATE    -114.062    
 BOUNDARY     23   LAYER   1   ROW     2   COL     8   RATE    -114.062    
 BOUNDARY     24   LAYER   1   ROW     2   COL     9   RATE    -114.062    
 BOUNDARY     25   LAYER   1   ROW     2   COL    10   RATE    -114.062    
 BOUNDARY     26   LAYER   1   ROW     2   COL    11   RATE    -114.062    
 BOUNDARY     27   LAYER   1   ROW     2   COL    12   RATE    -26.4023    
 BOUNDARY     28   LAYER   1   ROW     2   COL    13   RATE    -1.66133    
 BOUNDARY     29   LAYER   1   ROW     2   COL    14   RATE     0.00000    
 BOUNDARY     30   LAYER   1   ROW     2   COL    15   RATE     0.00000    
 BOUNDARY     31   LAYER   1   ROW     3   COL     1   RATE     0.00000    
 BOUNDARY     32   LAYER   1   ROW     3   COL     2   RATE     0.00000    
 BOUNDARY     33   LAYER   1   ROW     3   COL     3   RATE    -30.5080    
 BOUNDARY     34   LAYER   1   ROW     3   COL     4   RATE    -114.062    
 BOUNDARY     35   LAYER   1   ROW     3   COL     5   RATE    -114.062    
 BOUNDARY     36   LAYER   1   ROW     3   COL     6   RATE    -114.062    
 BOUNDARY     37   LAYER   1   ROW     3   COL     7   RATE    -114.062    
 BOUNDARY     38   LAYER   1   ROW     3   COL     8   RATE    -114.062    
 BOUNDARY     39   LAYER   1   ROW     3   COL     9   RATE    -114.062    
 BOUNDARY     40   LAYER   1   ROW     3   COL    10   RATE    -114.062    
 BOUNDARY     41   LAYER   1   ROW     3   COL    11   RATE    -114.062    
 BOUNDARY     42   LAYER   1   ROW     3   COL    12   RATE    -29.7525    
 BOUNDARY     43   LAYER   1   ROW     3   COL    13   RATE    -3.70886    
 BOUNDARY     44   LAYER   1   ROW     3   COL    14   RATE     0.00000    
 BOUNDARY     45   LAYER   1   ROW     3   COL    15   RATE     0.00000    
 BOUNDARY     46   LAYER   1   ROW     4   COL     1   RATE     0.00000    
 BOUNDARY     47   LAYER   1   ROW     4   COL     2   RATE    -4.87781    
 BOUNDARY     48   LAYER   1   ROW     4   COL     3   RATE    -38.0948    
 BOUNDARY     49   LAYER   1   ROW     4   COL     4   RATE    -114.062    
 BOUNDARY     50   LAYER   1   ROW     4   COL     5   RATE    -114.062    
 BOUNDARY     51   LAYER   1   ROW     4   COL     6   RATE    -114.062    
 BOUNDARY     52   LAYER   1   ROW     4   COL     7   RATE    -114.062    
 BOUNDARY     53   LAYER   1   ROW     4   COL     8   RATE    -114.062    
 BOUNDARY     54   LAYER   1   ROW     4   COL     9   RATE    -114.062    
 BOUNDARY     55   LAYER   1   ROW     4   COL    10   RATE    -114.062    
 BOUNDARY     56   LAYER   1   ROW     4   COL    11   RATE    -114.062    
 BOUNDARY     57   LAYER   1   ROW     4   COL    12   RATE    -32.9251    
 BOUNDARY     58   LAYER   1   ROW     4   COL    13   RATE    -5.36092    
 BOUNDARY     59   LAYER   1   ROW     4   COL    14   RATE     0.00000    
 BOUNDARY     60   LAYER   1   ROW     4   COL    15   RATE     0.00000    
 BOUNDARY     61   LAYER   1   ROW     5   COL     1   RATE     0.00000    
 BOUNDARY     62   LAYER   1   ROW     5   COL     2   RATE    -8.28984    
 BOUNDARY     63   LAYER   1   ROW     5   COL     3   RATE    -61.6402    
 BOUNDARY     64   LAYER   1   ROW     5   COL     4   RATE    -114.062    
 BOUNDARY     65   LAYER   1   ROW     5   COL     5   RATE    -114.062    
 BOUNDARY     66   LAYER   1   ROW     5   COL     6   RATE    -114.062    
 BOUNDARY     67   LAYER   1   ROW     5   COL     7   RATE    -114.062    
 BOUNDARY     68   LAYER   1   ROW     5   COL     8   RATE    -114.062    
 BOUNDARY     69   LAYER   1   ROW     5   COL     9   RATE    -114.062    
 BOUNDARY     70   LAYER   1   ROW     5   COL    10   RATE    -114.062    
 BOUNDARY     71   LAYER   1   ROW     5   COL    11   RATE    -114.062    
 BOUNDARY     72   LAYER   1   ROW     5   COL    12   RATE    -38.8121    
 BOUNDARY     73   LAYER   1   ROW     5   COL    13   RATE    -6.36249    
 BOUNDARY     74   LAYER   1   ROW     5   COL    14   RATE     0.00000    
 BOUNDARY     75   LAYER   1   ROW     5   COL    15   RATE     0.00000    
 BOUNDARY     76   LAYER   1   ROW     6   COL     1   RATE     0.00000    
 BOUNDARY     77   LAYER   1   ROW     6   COL     2   RATE    -6.62666    
 BOUNDARY     78   LAYER   1   ROW     6   COL     3   RATE    -65.8757    
 BOUNDARY     79   LAYER   1   ROW     6   COL     4   RATE    -114.062    
 BOUNDARY     80   LAYER   1   ROW     6   COL     5   RATE    -114.062    
 BOUNDARY     81   LAYER   1   ROW     6   COL     6   RATE    -114.062    
 BOUNDARY     82   LAYER   1   ROW     6   COL     7   RATE    -114.062    
 BOUNDARY     83   LAYER   1   ROW     6   COL     8   RATE    -114.062    
 BOUNDARY     84   LAYER   1   ROW     6   COL     9   RATE    -114.062    
 BOUNDARY     85   LAYER   1   ROW     6   COL    10   RATE    -114.062    
 BOUNDARY     86   LAYER   1   ROW     6   COL    11   RATE    -114.062    
 BOUNDARY     87   LAYER   1   ROW     6   COL    12   RATE    -42.6008    
 BOUNDARY     88   LAYER   1   ROW     6   COL    13   RATE    -6.30464    
 BOUNDARY     89   LAYER   1   ROW     6   COL    14   RATE     0.00000    
 BOUNDARY     90   LAYER   1   ROW     6   COL    15   RATE     0.00000    
 BOUNDARY     91   LAYER   1   ROW     7   COL     1   RATE     0.00000    
 BOUNDARY     92   LAYER   1   ROW     7   COL     2   RATE    -2.55070    
 BOUNDARY     93   LAYER   1   ROW     7   COL     3   RATE    -73.6178    
 BOUNDARY     94   LAYER   1   ROW     7   COL     4   RATE    -114.062    
 BOUNDARY     95   LAYER   1   ROW     7   COL     5   RATE    -114.062    
 BOUNDARY     96   LAYER   1   ROW     7   COL     6   RATE    -114.062    
 BOUNDARY     97   LAYER   1   ROW     7   COL     7   RATE    -114.062    
 BOUNDARY     98   LAYER   1   ROW     7   COL     8   RATE    -114.062    
 BOUNDARY     99   LAYER   1   ROW     7   COL     9   RATE    -114.062    
 BOUNDARY    100   LAYER   1   ROW     7   COL    10   RATE    -114.062    
 BOUNDARY    101   LAYER   1   ROW     7   COL    11   RATE    -114.062    
 BOUNDARY    102   LAYER   1   ROW     7   COL    12   RATE    -41.7809    
 BOUNDARY    103   LAYER   1   ROW     7   COL    13   RATE    -5.49247    
 BOUNDARY    104   LAYER   1   ROW     7   COL    14   RATE     0.00000    
 BOUNDARY    105   LAYER   1   ROW     7   COL    15   RATE     0.00000    
 BOUNDARY    106   LAYER   1   ROW     8   COL     1   RATE     0.00000    
 BOUNDARY    107   LAYER   1   ROW     8   COL     2   RATE    -17.8309    
 BOUNDARY    108   LAYER   1   ROW     8   COL     3   RATE    -114.062    
 BOUNDARY    109   LAYER   1   ROW     8   COL     4   RATE    -114.062    
 BOUNDARY    110   LAYER   1   ROW     8   COL     5   RATE    -114.062    
 BOUNDARY    111   LAYER   1   ROW     8   COL     6   RATE    -114.062    
 BOUNDARY    112   LAYER   1   ROW     8   COL     7   RATE    -114.062    
 BOUNDARY    113   LAYER   1   ROW     8   COL     8   RATE    -114.062    
 BOUNDARY    114   LAYER   1   ROW     8   COL     9   RATE    -114.062    
 BOUNDARY    115   LAYER   1   ROW     8   COL    10   RATE    -114.062    
 BOUNDARY    116   LAYER   1   ROW     8   COL    11   RATE    -114.062    
 BOUNDARY    117   LAYER   1   ROW     8   COL    12   RATE    -44.3239    
 BOUNDARY    118   LAYER   1   ROW     8   COL    13   RATE    -5.53968    
 BOUNDARY    119   LAYER   1   ROW     8   COL    14   RATE     0.00000    
 BOUNDARY    120   LAYER   1   ROW     8   COL    15   RATE     0.00000    
 BOUNDARY    121   LAYER   1   ROW     9   COL     1   RATE    -26.5257    
 BOUNDARY    122   LAYER   1   ROW     9   COL     2   RATE    -95.7424    
 BOUNDARY    123   LAYER   1   ROW     9   COL     3   RATE    -114.062    
 BOUNDARY    124   LAYER   1   ROW     9   COL     4   RATE    -114.062    
 BOUNDARY    125   LAYER   1   ROW     9   COL     5   RATE    -114.062    
 BOUNDARY    126   LAYER   1   ROW     9   COL     6   RATE    -114.062    
 BOUNDARY    127   LAYER   1   ROW     9   COL     7   RATE    -114.062    
 BOUNDARY    128   LAYER   1   ROW     9   COL     8   RATE    -114.062    
 BOUNDARY    129   LAYER   1   ROW     9   COL     9   RATE    -114.062    
 BOUNDARY    130   LAYER   1   ROW     9   COL    10   RATE    -114.062    
 BOUNDARY    131   LAYER   1   ROW     9   COL    11   RATE    -114.062    
 BOUNDARY    132   LAYER   1   ROW     9   COL    12   RATE    -51.0826    
 BOUNDARY    133   LAYER   1   ROW     9   COL    13   RATE    -6.53068    
 BOUNDARY    134   LAYER   1   ROW     9   COL    14   RATE     0.00000    
 BOUNDARY    135   LAYER   1   ROW     9   COL    15   RATE     0.00000    
 BOUNDARY    136   LAYER   1   ROW    10   COL     1   RATE    -104.983    
 BOUNDARY    137   LAYER   1   ROW    10   COL     2   RATE    -114.062    
 BOUNDARY    138   LAYER   1   ROW    10   COL     3   RATE    -114.062    
 BOUNDARY    139   LAYER   1   ROW    10   COL     4   RATE    -114.062    
 BOUNDARY    140   LAYER   1   ROW    10   COL     5   RATE    -114.062    
 BOUNDARY    141   LAYER   1   ROW    10   COL     6   RATE    -114.062    
 BOUNDARY    142   LAYER   1   ROW    10   COL     7   RATE    -114.062    
 BOUNDARY    143   LAYER   1   ROW    10   COL     8   RATE    -114.062    
 BOUNDARY    144   LAYER   1   ROW    10   COL     9   RATE    -114.062    
 BOUNDARY    145   LAYER   1   ROW    10   COL    10   RATE    -114.062    
 BOUNDARY    146   LAYER   1   ROW    10   COL    11   RATE    -114.062    
 BOUNDARY    147   LAYER   1   ROW    10   COL    12   RATE    -55.9161    
 BOUNDARY    148   LAYER   1   ROW    10   COL    13   RATE    -7.16196    
 BOUNDARY    149   LAYER   1   ROW    10   COL    14   RATE     0.00000    
 BOUNDARY    150   LAYER   1   ROW    10   COL    15   RATE     0.00000    

 HEAD WILL BE SAVED ON UNIT 1017 AT END OF TIME STEP    2, STRESS PERIOD    6
RIV   no.    1 value from time series:   101.00     for time:  123.0     to  124.0    
RIV   no.    2 value from time series:   101.00     for time:  123.0     to  124.0    
RIV   no.    3 value from time series:   111.50     for time:  123.0     to  124.0    
RIV   no.    4 value from time series:   111.50     for time:  123.0     to  124.0    
RIV   no.    5 value from time series:   115.10     for time:  123.0     to  124.0    
RIV   no.    6 value from time series:   115.10     for time:  123.0     to  124.0    
RIV   no.    7 value from time series:   104.00     for time:  123.0     to  124.0    
RIV   no.    8 value from time series:   104.00     for time:  123.0     to  124.0    
RIV   no.    9 value from time series:   113.50     for time:  123.0     to  124.0    
RIV   no.   10 value from time series:   113.50     for time:  123.0     to  124.0    
RIV   no.    1 value from time series:   101.00     for time:  123.0     to  124.0    
RIV   no.    2 value from time series:   101.00     for time:  123.0     to  124.0    
RIV   no.    3 value from time series:   111.50     for time:  123.0     to  124.0    
RIV   no.    4 value from time series:   111.50     for time:  123.0     to  124.0    
RIV   no.    5 value from time series:   115.10     for time:  123.0     to  124.0    
RIV   no.    6 value from time series:   115.10     for time:  123.0     to  124.0    
RIV   no.    7 value from time series:   104.00     for time:  123.0     to  124.0    
RIV   no.    8 value from time series:   104.00     for time:  123.0     to  124.0    
RIV   no.    9 value from time series:   113.50     for time:  123.0     to  124.0    
RIV   no.   10 value from time series:   113.50     for time:  123.0     to  124.0    

 OUTPUT CONTROL FOR STRESS PERIOD    6   TIME STEP    3
    SAVE BUDGET
    SAVE HEAD
    SAVE HEAD FOR ALL LAYERS
 UBDSV1 SAVING          STORAGE ON UNIT   1016 AT TIME STEP      3, STRESS PERIOD      6
 UBDSV1 SAVING FLOW RIGHT FACE  ON UNIT   1016 AT TIME STEP      3, STRESS PERIOD      6
 UBDSV1 SAVING FLOW FRONT FACE  ON UNIT   1016 AT TIME STEP      3, STRESS PERIOD      6
 UBDSV1 SAVING FLOW LOWER FACE  ON UNIT   1016 AT TIME STEP      3, STRESS PERIOD      6
 UBDSV4 SAVING WELLS NEAR RIVER ON UNIT   1016 AT TIME STEP      3, STRESS PERIOD      6
 UBDSV4 SAVING RIVER            ON UNIT   1016 AT TIME STEP      3, STRESS PERIOD      6

 RIVER              PERIOD  6   STEP  3
 BOUNDARY      1   LAYER   1   ROW     1   COL    15   RATE    -5001.48    
 BOUNDARY      2   LAYER   1   ROW     2   COL    15   RATE    -6128.15      RIV2
 BOUNDARY      3   LAYER   1   ROW     3   COL    15   RATE    -2393.48      RIV3
 BOUNDARY      4   LAYER   1   ROW     4   COL    15   RATE    -3858.38    
 BOUNDARY      5   LAYER   1   ROW     5   COL    15   RATE    -2494.82    
 BOUNDARY      6   LAYER   1   ROW     6   COL    15   RATE    -1841.66    
 BOUNDARY      7   LAYER   1   ROW     7   COL    15   RATE    -6327.81      RIVX
 BOUNDARY      8   LAYER   1   ROW     8   COL    15   RATE    -6178.14      RIVX
 BOUNDARY      9   LAYER   1   ROW     9   COL    15   RATE    -2387.75      RIVX
 BOUNDARY     10   LAYER   1   ROW    10   COL    15   RATE    -3295.04    

 GHB LAKES          PERIOD  6   STEP  3
 BOUNDARY      1   LAYER   1   ROW     3   COL     1   RATE    -14948.9    
 BOUNDARY      2   LAYER   1   ROW     7   COL     1   RATE    -2223.92      GHB2_UPPER
 BOUNDARY      3   LAYER   1   ROW     7   COL     1   RATE    -13372.3      GHB2_LOWER
 UBDSV4 SAVING RECHARGE         ON UNIT   1016 AT TIME STEP      3, STRESS PERIOD      6

 RECHARGE           PERIOD  6   STEP  3
 BOUNDARY      1   LAYER   1   ROW     1   COL     1   RATE     830.833    
 BOUNDARY      2   LAYER   1   ROW     1   COL     2   RATE     830.833    
 BOUNDARY      3   LAYER   1   ROW     1   COL     3   RATE     830.833    
 BOUNDARY      4   LAYER   1   ROW     1   COL     4   RATE     830.833    
 BOUNDARY      5   LAYER   1   ROW     1   COL     5   RATE     830.833    
 BOUNDARY      6   LAYER   1   ROW     1   COL     6   RATE     830.833    
 BOUNDARY      7   LAYER   1   ROW     1   COL     7   RATE     830.833    
 BOUNDARY      8   LAYER   1   ROW     1   COL     8   RATE     830.833    
 BOUNDARY      9   LAYER   1   ROW     1   COL     9   RATE     830.833    
 BOUNDARY     10   LAYER   1   ROW     1   COL    10   RATE     830.833    
 BOUNDARY     11   LAYER   1   ROW     1   COL    11   RATE     830.833    
 BOUNDARY     12   LAYER   1   ROW     1   COL    12   RATE     830.833    
 BOUNDARY     13   LAYER   1   ROW     1   COL    13   RATE     830.833    
 BOUNDARY     14   LAYER   1   ROW     1   COL    14   RATE     830.833    
 BOUNDARY     15   LAYER   1   ROW     1   COL    15   RATE     830.833    
 BOUNDARY     16   LAYER   1   ROW     2   COL     1   RATE     830.833    
 BOUNDARY     17   LAYER   1   ROW     2   COL     2   RATE     830.833    
 BOUNDARY     18   LAYER   1   ROW     2   COL     3   RATE     830.833    
 BOUNDARY     19   LAYER   1   ROW     2   COL     4   RATE     830.833    
 BOUNDARY     20   LAYER   1   ROW     2   COL     5   RATE     830.833    
 BOUNDARY     21   LAYER   1   ROW     2   COL     6   RATE     830.833    
 BOUNDARY     22   LAYER   1   ROW     2   COL     7   RATE     830.833    
 BOUNDARY     23   LAYER   1   ROW     2   COL     8   RATE     830.833    
 BOUNDARY     24   LAYER   1   ROW     2   COL     9   RATE     830.833    
 BOUNDARY     25   LAYER   1   ROW     2   COL    10   RATE     830.833    
 BOUNDARY     26   LAYER   1   ROW     2   COL    11   RATE     830.833    
 BOUNDARY     27   LAYER   1   ROW     2   COL    12   RATE     830.833    
 BOUNDARY     28   LAYER   1   ROW     2   COL    13   RATE     830.833    
 BOUNDARY     29   LAYER   1   ROW     2   COL    14   RATE     830.833    
 BOUNDARY     30   LAYER   1   ROW     2   COL    15   RATE     830.833    
 BOUNDARY     31   LAYER   1   ROW     3   COL     1   RATE     830.833    
 BOUNDARY     32   LAYER   1   ROW     3   COL     2   RATE     830.833    
 BOUNDARY     33   LAYER   1   ROW     3   COL     3   RATE     830.833    
 BOUNDARY     34   LAYER   1   ROW     3   COL     4   RATE     830.833    
 BOUNDARY     35   LAYER   1   ROW     3   COL     5   RATE     830.833    
 BOUNDARY     36   LAYER   1   ROW     3   COL     6   RATE     830.833    
 BOUNDARY     37   LAYER   1   ROW     3   COL     7   RATE     830.833    
 BOUNDARY     38   LAYER   1   ROW     3   COL     8   RATE     830.833    
 BOUNDARY     39   LAYER   1   ROW     3   COL     9   RATE     830.833    
 BOUNDARY     40   LAYER   1   ROW     3   COL    10   RATE     830.833    
 BOUNDARY     41   LAYER   1   ROW     3   COL    11   RATE     830.833    
 BOUNDARY     42   LAYER   1   ROW     3   COL    12   RATE     830.833    
 BOUNDARY     43   LAYER   1   ROW     3   COL    13   RATE     830.833    
 BOUNDARY     44   LAYER   1   ROW     3   COL    14   RATE     830.833    
 BOUNDARY     45   LAYER   1   ROW     3   COL    15   RATE     830.833    
 BOUNDARY     46   LAYER   1   ROW     4   COL     1   RATE     830.833    
 BOUNDARY     47   LAYER   1   ROW     4   COL     2   RATE     830.833    
 BOUNDARY     48   LAYER   1   ROW     4   COL     3   RATE     830.833    
 BOUNDARY     49   LAYER   1   ROW     4   COL     4   RATE     830.833    
 BOUNDARY     50   LAYER   1   ROW     4   COL     5   RATE     830.833    
 BOUNDARY     51   LAYER   1   ROW     4   COL     6   RATE     830.833    
 BOUNDARY     52   LAYER   1   ROW     4   COL     7   RATE     830.833    
 BOUNDARY     53   LAYER   1   ROW     4   COL     8   RATE     830.833    
 BOUNDARY     54   LAYER   1   ROW     4   COL     9   RATE     830.833    
 BOUNDARY     55   LAYER   1   ROW     4   COL    10   RATE     830.833    
 BOUNDARY     56   LAYER   1   ROW     4   COL    11   RATE     830.833    
 BOUNDARY     57   LAYER   1   ROW     4   COL    12   RATE     830.833    
 BOUNDARY     58   LAYER   1   ROW     4   COL    13   RATE     830.833    
 BOUNDARY     59   LAYER   1   ROW     4   COL    14   RATE     830.833    
 BOUNDARY     60   LAYER   1   ROW     4   COL    15   RATE     830.833    
 BOUNDARY     61   LAYER   1   ROW     5   COL     1   RATE     830.833    
 BOUNDARY     62   LAYER   1   ROW     5   COL     2   RATE     830.833    
 BOUNDARY     63   LAYER   1   ROW     5   COL     3   RATE     830.833    
 BOUNDARY     64   LAYER   1   ROW     5   COL     4   RATE     830.833    
 BOUNDARY     65   LAYER   1   ROW     5   COL     5   RATE     830.833    
 BOUNDARY     66   LAYER   1   ROW     5   COL     6   RATE     830.833    
 BOUNDARY     67   LAYER   1   ROW     5   COL     7   RATE     830.833    
 BOUNDARY     68   LAYER   1   ROW     5   COL     8   RATE     830.833    
 BOUNDARY     69   LAYER   1   ROW     5   COL     9   RATE     830.833    
 BOUNDARY     70   LAYER   1   ROW     5   COL    10   RATE     830.833    
 BOUNDARY     71   LAYER   1   ROW     5   COL    11   RATE     830.833    
 BOUNDARY     72   LAYER   1   ROW     5   COL    12   RATE     830.833    
 BOUNDARY     73   LAYER   1   ROW     5   COL    13   RATE     830.833    
 BOUNDARY     74   LAYER   1   ROW     5   COL    14   RATE     830.833    
 BOUNDARY     75   LAYER   1   ROW     5   COL    15   RATE     830.833    
 BOUNDARY     76   LAYER   1   ROW     6   COL     1   RATE     830.833    
 BOUNDARY     77   LAYER   1   ROW     6   COL     2   RATE     830.833    
 BOUNDARY     78   LAYER   1   ROW     6   COL     3   RATE     830.833    
 BOUNDARY     79   LAYER   1   ROW     6   COL     4   RATE     830.833    
 BOUNDARY     80   LAYER   1   ROW     6   COL     5   RATE     830.833    
 BOUNDARY     81   LAYER   1   ROW     6   COL     6   RATE     830.833    
 BOUNDARY     82   LAYER   1   ROW     6   COL     7   RATE     830.833    
 BOUNDARY     83   LAYER   1   ROW     6   COL     8   RATE     830.833    
 BOUNDARY     84   LAYER   1   ROW     6   COL     9   RATE     830.833    
 BOUNDARY     85   LAYER   1   ROW     6   COL    10   RATE     830.833    
 BOUNDARY     86   LAYER   1   ROW     6   COL    11   RATE     830.833    
 BOUNDARY     87   LAYER   1   ROW     6   COL    12   RATE     830.833    
 BOUNDARY     88   LAYER   1   ROW     6   COL    13   RATE     830.833    
 BOUNDARY     89   LAYER   1   ROW     6   COL    14   RATE     830.833    
 BOUNDARY     90   LAYER   1   ROW     6   COL    15   RATE     830.833    
 BOUNDARY     91   LAYER   1   ROW     7   COL     1   RATE     830.833    
 BOUNDARY     92   LAYER   1   ROW     7   COL     2   RATE     830.833    
 BOUNDARY     93   LAYER   1   ROW     7   COL     3   RATE     830.833    
 BOUNDARY     94   LAYER   1   ROW     7   COL     4   RATE     830.833    
 BOUNDARY     95   LAYER   1   ROW     7   COL     5   RATE     830.833    
 BOUNDARY     96   LAYER   1   ROW     7   COL     6   RATE     830.833    
 BOUNDARY     97   LAYER   1   ROW     7   COL     7   RATE     830.833    
 BOUNDARY     98   LAYER   1   ROW     7   COL     8   RATE     830.833    
 BOUNDARY     99   LAYER   1   ROW     7   COL     9   RATE     830.833    
 BOUNDARY    100   LAYER   1   ROW     7   COL    10   RATE     830.833    
 BOUNDARY    101   LAYER   1   ROW     7   COL    11   RATE     830.833    
 BOUNDARY    102   LAYER   1   ROW     7   COL    12   RATE     830.833    
 BOUNDARY    103   LAYER   1   ROW     7   COL    13   RATE     830.833    
 BOUNDARY    104   LAYER   1   ROW     7   COL    14   RATE     830.833    
 BOUNDARY    105   LAYER   1   ROW     7   COL    15   RATE     830.833    
 BOUNDARY    106   LAYER   1   ROW     8   COL     1   RATE     830.833    
 BOUNDARY    107   LAYER   1   ROW     8   COL     2   RATE     830.833    
 BOUNDARY    108   LAYER   1   ROW     8   COL     3   RATE     830.833    
 BOUNDARY    109   LAYER   1   ROW     8   COL     4   RATE     830.833    
 BOUNDARY    110   LAYER   1   ROW     8   COL     5   RATE     830.833    
 BOUNDARY    111   LAYER   1   ROW     8   COL     6   RATE     830.833    
 BOUNDARY    112   LAYER   1   ROW     8   COL     7   RATE     830.833    
 BOUNDARY    113   LAYER   1   ROW     8   COL     8   RATE     830.833    
 BOUNDARY    114   LAYER   1   ROW     8   COL     9   RATE     830.833    
 BOUNDARY    115   LAYER   1   ROW     8   COL    10   RATE     830.833    
 BOUNDARY    116   LAYER   1   ROW     8   COL    11   RATE     830.833    
 BOUNDARY    117   LAYER   1   ROW     8   COL    12   RATE     830.833    
 BOUNDARY    118   LAYER   1   ROW     8   COL    13   RATE     830.833    
 BOUNDARY    119   LAYER   1   ROW     8   COL    14   RATE     830.833    
 BOUNDARY    120   LAYER   1   ROW     8   COL    15   RATE     830.833    
 BOUNDARY    121   LAYER   1   ROW     9   COL     1   RATE     830.833    
 BOUNDARY    122   LAYER   1   ROW     9   COL     2   RATE     830.833    
 BOUNDARY    123   LAYER   1   ROW     9   COL     3   RATE     830.833    
 BOUNDARY    124   LAYER   1   ROW     9   COL     4   RATE     830.833    
 BOUNDARY    125   LAYER   1   ROW     9   COL     5   RATE     830.833    
 BOUNDARY    126   LAYER   1   ROW     9   COL     6   RATE     830.833    
 BOUNDARY    127   LAYER   1   ROW     9   COL     7   RATE     830.833    
 BOUNDARY    128   LAYER   1   ROW     9   COL     8   RATE     830.833    
 BOUNDARY    129   LAYER   1   ROW     9   COL     9   RATE     830.833    
 BOUNDARY    130   LAYER   1   ROW     9   COL    10   RATE     830.833    
 BOUNDARY    131   LAYER   1   ROW     9   COL    11   RATE     830.833    
 BOUNDARY    132   LAYER   1   ROW     9   COL    12   RATE     830.833    
 BOUNDARY    133   LAYER   1   ROW     9   COL    13   RATE     830.833    
 BOUNDARY    134   LAYER   1   ROW     9   COL    14   RATE     830.833    
 BOUNDARY    135   LAYER   1   ROW     9   COL    15   RATE     830.833    
 BOUNDARY    136   LAYER   1   ROW    10   COL     1   RATE     830.833    
 BOUNDARY    137   LAYER   1   ROW    10   COL     2   RATE     830.833    
 BOUNDARY    138   LAYER   1   ROW    10   COL     3   RATE     830.833    
 BOUNDARY    139   LAYER   1   ROW    10   COL     4   RATE     830.833    
 BOUNDARY    140   LAYER   1   ROW    10   COL     5   RATE     830.833    
 BOUNDARY    141   LAYER   1   ROW    10   COL     6   RATE     830.833    
 BOUNDARY    142   LAYER   1   ROW    10   COL     7   RATE     830.833    
 BOUNDARY    143   LAYER   1   ROW    10   COL     8   RATE     830.833    
 BOUNDARY    144   LAYER   1   ROW    10   COL     9   RATE     830.833    
 BOUNDARY    145   LAYER   1   ROW    10   COL    10   RATE     830.833    
 BOUNDARY    146   LAYER   1   ROW    10   COL    11   RATE     830.833    
 BOUNDARY    147   LAYER   1   ROW    10   COL    12   RATE     830.833    
 BOUNDARY    148   LAYER   1   ROW    10   COL    13   RATE     830.833    
 BOUNDARY    149   LAYER   1   ROW    10   COL    14   RATE     830.833    
 BOUNDARY    150   LAYER   1   ROW    10   COL    15   RATE     830.833    
 UBDSV4 SAVING ET SEGS          ON UNIT   1016 AT TIME STEP      3, STRESS PERIOD      6

 ET SEGS            PERIOD  6   STEP  3
 BOUNDARY      1   LAYER   1   ROW     1   COL     1   RATE    -3.99385    
 BOUNDARY      2   LAYER   1   ROW     1   COL     2   RATE    -12.8326    
 BOUNDARY      3   LAYER   1   ROW     1   COL     3   RATE    -83.4653    
 BOUNDARY      4   LAYER   1   ROW     1   COL     4   RATE    -114.687    
 BOUNDARY      5   LAYER   1   ROW     1   COL     5   RATE    -114.687    
 BOUNDARY      6   LAYER   1   ROW     1   COL     6   RATE    -114.687    
 BOUNDARY      7   LAYER   1   ROW     1   COL     7   RATE    -114.687    
 BOUNDARY      8   LAYER   1   ROW     1   COL     8   RATE    -114.687    
 BOUNDARY      9   LAYER   1   ROW     1   COL     9   RATE    -114.687    
 BOUNDARY     10   LAYER   1   ROW     1   COL    10   RATE    -114.687    
 BOUNDARY     11   LAYER   1   ROW     1   COL    11   RATE    -114.687    
 BOUNDARY     12   LAYER   1   ROW     1   COL    12   RATE    -24.6433    
 BOUNDARY     13   LAYER   1   ROW     1   COL    13   RATE   -0.567821    
 BOUNDARY     14   LAYER   1   ROW     1   COL    14   RATE     0.00000    
 BOUNDARY     15   LAYER   1   ROW     1   COL    15   RATE     0.00000    
 BOUNDARY     16   LAYER   1   ROW     2   COL     1   RATE     0.00000    
 BOUNDARY     17   LAYER   1   ROW     2   COL     2   RATE    -6.66616    
 BOUNDARY     18   LAYER   1   ROW     2   COL     3   RATE    -51.2799    
 BOUNDARY     19   LAYER   1   ROW     2   COL     4   RATE    -114.687    
 BOUNDARY     20   LAYER   1   ROW     2   COL     5   RATE    -114.687    
 BOUNDARY     21   LAYER   1   ROW     2   COL     6   RATE    -114.687    
 BOUNDARY     22   LAYER   1   ROW     2   COL     7   RATE    -114.687    
 BOUNDARY     23   LAYER   1   ROW     2   COL     8   RATE    -114.687    
 BOUNDARY     24   LAYER   1   ROW     2   COL     9   RATE    -114.687    
 BOUNDARY     25   LAYER   1   ROW     2   COL    10   RATE    -114.687    
 BOUNDARY     26   LAYER   1   ROW     2   COL    11   RATE    -114.687    
 BOUNDARY     27   LAYER   1   ROW     2   COL    12   RATE    -26.6432    
 BOUNDARY     28   LAYER   1   ROW     2   COL    13   RATE    -1.69863    
 BOUNDARY     29   LAYER   1   ROW     2   COL    14   RATE     0.00000    
 BOUNDARY     30   LAYER   1   ROW     2   COL    15   RATE     0.00000    
 BOUNDARY     31   LAYER   1   ROW     3   COL     1   RATE     0.00000    
 BOUNDARY     32   LAYER   1   ROW     3   COL     2   RATE     0.00000    
 BOUNDARY     33   LAYER   1   ROW     3   COL     3   RATE    -30.7687    
 BOUNDARY     34   LAYER   1   ROW     3   COL     4   RATE    -114.687    
 BOUNDARY     35   LAYER   1   ROW     3   COL     5   RATE    -114.687    
 BOUNDARY     36   LAYER   1   ROW     3   COL     6   RATE    -114.687    
 BOUNDARY     37   LAYER   1   ROW     3   COL     7   RATE    -114.687    
 BOUNDARY     38   LAYER   1   ROW     3   COL     8   RATE    -114.687    
 BOUNDARY     39   LAYER   1   ROW     3   COL     9   RATE    -114.687    
 BOUNDARY     40   LAYER   1   ROW     3   COL    10   RATE    -114.687    
 BOUNDARY     41   LAYER   1   ROW     3   COL    11   RATE    -114.687    
 BOUNDARY     42   LAYER   1   ROW     3   COL    12   RATE    -30.0117    
 BOUNDARY     43   LAYER   1   ROW     3   COL    13   RATE    -3.75734    
 BOUNDARY     44   LAYER   1   ROW     3   COL    14   RATE     0.00000    
 BOUNDARY     45   LAYER   1   ROW     3   COL    15   RATE     0.00000    
 BOUNDARY     46   LAYER   1   ROW     4   COL     1   RATE     0.00000    
 BOUNDARY     47   LAYER   1   ROW     4   COL     2   RATE    -4.93230    
 BOUNDARY     48   LAYER   1   ROW     4   COL     3   RATE    -38.7928    
 BOUNDARY     49   LAYER   1   ROW     4   COL     4   RATE    -114.687    
 BOUNDARY     50   LAYER   1   ROW     4   COL     5   RATE    -114.687    
 BOUNDARY     51   LAYER   1   ROW     4   COL     6   RATE    -114.687    
 BOUNDARY     52   LAYER   1   ROW     4   COL     7   RATE    -114.687    
 BOUNDARY     53   LAYER   1   ROW     4   COL     8   RATE    -114.687    
 BOUNDARY     54   LAYER   1   ROW     4   COL     9   RATE    -114.687    
 BOUNDARY     55   LAYER   1   ROW     4   COL    10   RATE    -114.687    
 BOUNDARY     56   LAYER   1   ROW     4   COL    11   RATE    -114.687    
 BOUNDARY     57   LAYER   1   ROW     4   COL    12   RATE    -33.2012    
 BOUNDARY     58   LAYER   1   ROW     4   COL    13   RATE    -5.41832    
 BOUNDARY     59   LAYER   1   ROW     4   COL    14   RATE     0.00000    
 BOUNDARY     60   LAYER   1   ROW     4   COL    15   RATE     0.00000    
 BOUNDARY     61   LAYER   1   ROW     5   COL     1   RATE     0.00000    
 BOUNDARY     62   LAYER   1   ROW     5   COL     2   RATE    -8.36337    
 BOUNDARY     63   LAYER   1   ROW     5   COL     3   RATE    -62.4587    
 BOUNDARY     64   LAYER   1   ROW     5   COL     4   RATE    -114.687    
 BOUNDARY     65   LAYER   1   ROW     5   COL     5   RATE    -114.687    
 BOUNDARY     66   LAYER   1   ROW     5   COL     6   RATE    -114.687    
 BOUNDARY     67   LAYER   1   ROW     5   COL     7   RATE    -114.687    
 BOUNDARY     68   LAYER   1   ROW     5   COL     8   RATE    -114.687    
 BOUNDARY     69   LAYER   1   ROW     5   COL     9   RATE    -114.687    
 BOUNDARY     70   LAYER   1   ROW     5   COL    10   RATE    -114.687    
 BOUNDARY     71   LAYER   1   ROW     5   COL    11   RATE    -114.687    
 BOUNDARY     72   LAYER   1   ROW     5   COL    12   RATE    -39.5197    
 BOUNDARY     73   LAYER   1   ROW     5   COL    13   RATE    -6.42515    
 BOUNDARY     74   LAYER   1   ROW     5   COL    14   RATE     0.00000    
 BOUNDARY     75   LAYER   1   ROW     5   COL    15   RATE     0.00000    
 BOUNDARY     76   LAYER   1   ROW     6   COL     1   RATE     0.00000    
 BOUNDARY     77   LAYER   1   ROW     6   COL     2   RATE    -6.69014    
 BOUNDARY     78   LAYER   1   ROW     6   COL     3   RATE    -66.7074    
 BOUNDARY     79   LAYER   1   ROW     6   COL     4   RATE    -114.687    
 BOUNDARY     80   LAYER   1   ROW     6   COL     5   RATE    -114.687    
 BOUNDARY     81   LAYER   1   ROW     6   COL     6   RATE    -114.687    
 BOUNDARY     82   LAYER   1   ROW     6   COL     7   RATE    -114.687    
 BOUNDARY     83   LAYER   1   ROW     6   COL     8   RATE    -114.687    
 BOUNDARY     84   LAYER   1   ROW     6   COL     9   RATE    -114.687    
 BOUNDARY     85   LAYER   1   ROW     6   COL    10   RATE    -114.687    
 BOUNDARY     86   LAYER   1   ROW     6   COL    11   RATE    -114.687    
 BOUNDARY     87   LAYER   1   ROW     6   COL    12   RATE    -43.3259    
 BOUNDARY     88   LAYER   1   ROW     6   COL    13   RATE    -6.36691    
 BOUNDARY     89   LAYER   1   ROW     6   COL    14   RATE     0.00000    
 BOUNDARY     90   LAYER   1   ROW     6   COL    15   RATE     0.00000    
 BOUNDARY     91   LAYER   1   ROW     7   COL     1   RATE     0.00000    
 BOUNDARY     92   LAYER   1   ROW     7   COL     2   RATE    -2.58967    
 BOUNDARY     93   LAYER   1   ROW     7   COL     3   RATE    -74.4789    
 BOUNDARY     94   LAYER   1   ROW     7   COL     4   RATE    -114.687    
 BOUNDARY     95   LAYER   1   ROW     7   COL     5   RATE    -114.687    
 BOUNDARY     96   LAYER   1   ROW     7   COL     6   RATE    -114.687    
 BOUNDARY     97   LAYER   1   ROW     7   COL     7   RATE    -114.687    
 BOUNDARY     98   LAYER   1   ROW     7   COL     8   RATE    -114.687    
 BOUNDARY     99   LAYER   1   ROW     7   COL     9   RATE    -114.687    
 BOUNDARY    100   LAYER   1   ROW     7   COL    10   RATE    -114.687    
 BOUNDARY    101   LAYER   1   ROW     7   COL    11   RATE    -114.687    
 BOUNDARY    102   LAYER   1   ROW     7   COL    12   RATE    -42.5028    
 BOUNDARY    103   LAYER   1   ROW     7   COL    13   RATE    -5.55050    
 BOUNDARY    104   LAYER   1   ROW     7   COL    14   RATE     0.00000    
 BOUNDARY    105   LAYER   1   ROW     7   COL    15   RATE     0.00000    
 BOUNDARY    106   LAYER   1   ROW     8   COL     1   RATE     0.00000    
 BOUNDARY    107   LAYER   1   ROW     8   COL     2   RATE    -18.0173    
 BOUNDARY    108   LAYER   1   ROW     8   COL     3   RATE    -114.687    
 BOUNDARY    109   LAYER   1   ROW     8   COL     4   RATE    -114.687    
 BOUNDARY    110   LAYER   1   ROW     8   COL     5   RATE    -114.687    
 BOUNDARY    111   LAYER   1   ROW     8   COL     6   RATE    -114.687    
 BOUNDARY    112   LAYER   1   ROW     8   COL     7   RATE    -114.687    
 BOUNDARY    113   LAYER   1   ROW     8   COL     8   RATE    -114.687    
 BOUNDARY    114   LAYER   1   ROW     8   COL     9   RATE    -114.687    
 BOUNDARY    115   LAYER   1   ROW     8   COL    10   RATE    -114.687    
 BOUNDARY    116   LAYER   1   ROW     8   COL    11   RATE    -114.687    
 BOUNDARY    117   LAYER   1   ROW     8   COL    12   RATE    -45.0609    
 BOUNDARY    118   LAYER   1   ROW     8   COL    13   RATE    -5.59830    
 BOUNDARY    119   LAYER   1   ROW     8   COL    14   RATE     0.00000    
 BOUNDARY    120   LAYER   1   ROW     8   COL    15   RATE     0.00000    
 BOUNDARY    121   LAYER   1   ROW     9   COL     1   RATE    -26.7615    
 BOUNDARY    122   LAYER   1   ROW     9   COL     2   RATE    -96.7348    
 BOUNDARY    123   LAYER   1   ROW     9   COL     3   RATE    -114.687    
 BOUNDARY    124   LAYER   1   ROW     9   COL     4   RATE    -114.687    
 BOUNDARY    125   LAYER   1   ROW     9   COL     5   RATE    -114.687    
 BOUNDARY    126   LAYER   1   ROW     9   COL     6   RATE    -114.687    
 BOUNDARY    127   LAYER   1   ROW     9   COL     7   RATE    -114.687    
 BOUNDARY    128   LAYER   1   ROW     9   COL     8   RATE    -114.687    
 BOUNDARY    129   LAYER   1   ROW     9   COL     9   RATE    -114.687    
 BOUNDARY    130   LAYER   1   ROW     9   COL    10   RATE    -114.687    
 BOUNDARY    131   LAYER   1   ROW     9   COL    11   RATE    -114.687    
 BOUNDARY    132   LAYER   1   ROW     9   COL    12   RATE    -51.8572    
 BOUNDARY    133   LAYER   1   ROW     9   COL    13   RATE    -6.59503    
 BOUNDARY    134   LAYER   1   ROW     9   COL    14   RATE     0.00000    
 BOUNDARY    135   LAYER   1   ROW     9   COL    15   RATE     0.00000    
 BOUNDARY    136   LAYER   1   ROW    10   COL     1   RATE    -106.026    
 BOUNDARY    137   LAYER   1   ROW    10   COL     2   RATE    -114.687    
 BOUNDARY    138   LAYER   1   ROW    10   COL     3   RATE    -114.687    
 BOUNDARY    139   LAYER   1   ROW    10   COL     4   RATE    -114.687    
 BOUNDARY    140   LAYER   1   ROW    10   COL     5   RATE    -114.687    
 BOUNDARY    141   LAYER   1   ROW    10   COL     6   RATE    -114.687    
 BOUNDARY    142   LAYER   1   ROW    10   COL     7   RATE    -114.687    
 BOUNDARY    143   LAYER   1   ROW    10   COL     8   RATE    -114.687    
 BOUNDARY    144   LAYER   1   ROW    10   COL     9   RATE    -114.687    
 BOUNDARY    145   LAYER   1   ROW    10   COL    10   RATE    -114.687    
 BOUNDARY    146   LAYER   1   ROW    10   COL    11   RATE    -114.687    
 BOUNDARY    147   LAYER   1   ROW    10   COL    12   RATE    -56.7177    
 BOUNDARY    148   LAYER   1   ROW    10   COL    13   RATE    -7.22996    
 BOUNDARY    149   LAYER   1   ROW    10   COL    14   RATE     0.00000    
 BOUNDARY    150   LAYER   1   ROW    10   COL    15   RATE     0.00000    

 HEAD WILL BE SAVED ON UNIT 1017 AT END OF TIME STEP    3, STRESS PERIOD    6
RIV   no.    1 value from time series:   101.00     for time:  124.0     to  125.0    
RIV   no.    2 value from time series:   101.00     for time:  124.0     to  125.0    
RIV   no.    3 value from time series:   111.50     for time:  124.0     to  125.0    
RIV   no.    4 value from time series:   111.50     for time:  124.0     to  125.0    
RIV   no.    5 value from time series:   115.10     for time:  124.0     to  125.0    
RIV   no.    6 value from time series:   115.10     for time:  124.0     to  125.0    
RIV   no.    7 value from time series:   104.00     for time:  124.0     to  125.0    
RIV   no.    8 value from time series:   104.00     for time:  124.0     to  125.0    
RIV   no.    9 value from time series:   113.50     for time:  124.0     to  125.0    
RIV   no.   10 value from time series:   113.50     for time:  124.0     to  125.0    
RIV   no.    1 value from time series:   101.00     for time:  124.0     to  125.0    
RIV   no.    2 value from time series:   101.00     for time:  124.0     to  125.0    
RIV   no.    3 value from time series:   111.50     for time:  124.0     to  125.0    
RIV   no.    4 value from time series:   111.50     for time:  124.0     to  125.0    
RIV   no.    5 value from time series:   115.10     for time:  124.0     to  125.0    
RIV   no.    6 value from time series:   115.10     for time:  124.0     to  125.0    
RIV   no.    7 value from time series:   104.00     for time:  124.0     to  125.0    
RIV   no.    8 value from time series:   104.00     for time:  124.0     to  125.0    
RIV   no.    9 value from time series:   113.50     for time:  124.0     to  125.0    
RIV   no.   10 value from time series:   113.50     for time:  124.0     to  125.0    

 OUTPUT CONTROL FOR STRESS PERIOD    6   TIME STEP    4
    SAVE BUDGET
    SAVE HEAD
    SAVE HEAD FOR ALL LAYERS
 UBDSV1 SAVING          STORAGE ON UNIT   1016 AT TIME STEP      4, STRESS PERIOD      6
 UBDSV1 SAVING FLOW RIGHT FACE  ON UNIT   1016 AT TIME STEP      4, STRESS PERIOD      6
 UBDSV1 SAVING FLOW FRONT FACE  ON UNIT   1016 AT TIME STEP      4, STRESS PERIOD      6
 UBDSV1 SAVING FLOW LOWER FACE  ON UNIT   1016 AT TIME STEP      4, STRESS PERIOD      6
 UBDSV4 SAVING WELLS NEAR RIVER ON UNIT   1016 AT TIME STEP      4, STRESS PERIOD      6
 UBDSV4 SAVING RIVER            ON UNIT   1016 AT TIME STEP      4, STRESS PERIOD      6

 RIVER              PERIOD  6   STEP  4
 BOUNDARY      1   LAYER   1   ROW     1   COL    15   RATE    -5005.87    
 BOUNDARY      2   LAYER   1   ROW     2   COL    15   RATE    -6132.61      RIV2
 BOUNDARY      3   LAYER   1   ROW     3   COL    15   RATE    -2397.87      RIV3
 BOUNDARY      4   LAYER   1   ROW     4   COL    15   RATE    -3862.81    
 BOUNDARY      5   LAYER   1   ROW     5   COL    15   RATE    -2499.20    
 BOUNDARY      6   LAYER   1   ROW     6   COL    15   RATE    -1846.01    
 BOUNDARY      7   LAYER   1   ROW     7   COL    15   RATE    -6332.33      RIVX
 BOUNDARY      8   LAYER   1   ROW     8   COL    15   RATE    -6182.73      RIVX
 BOUNDARY      9   LAYER   1   ROW     9   COL    15   RATE    -2392.29      RIVX
 BOUNDARY     10   LAYER   1   ROW    10   COL    15   RATE    -3299.65    

 GHB LAKES          PERIOD  6   STEP  4
 BOUNDARY      1   LAYER   1   ROW     3   COL     1   RATE    -14957.2    
 BOUNDARY      2   LAYER   1   ROW     7   COL     1   RATE    -2230.38      GHB2_UPPER
 BOUNDARY      3   LAYER   1   ROW     7   COL     1   RATE    -13374.6      GHB2_LOWER
 UBDSV4 SAVING RECHARGE         ON UNIT   1016 AT TIME STEP      4, STRESS PERIOD      6

 RECHARGE           PERIOD  6   STEP  4
 BOUNDARY      1   LAYER   1   ROW     1   COL     1   RATE     832.500    
 BOUNDARY      2   LAYER   1   ROW     1   COL     2   RATE     832.500    
 BOUNDARY      3   LAYER   1   ROW     1   COL     3   RATE     832.500    
 BOUNDARY      4   LAYER   1   ROW     1   COL     4   RATE     832.500    
 BOUNDARY      5   LAYER   1   ROW     1   COL     5   RATE     832.500    
 BOUNDARY      6   LAYER   1   ROW     1   COL     6   RATE     832.500    
 BOUNDARY      7   LAYER   1   ROW     1   COL     7   RATE     832.500    
 BOUNDARY      8   LAYER   1   ROW     1   COL     8   RATE     832.500    
 BOUNDARY      9   LAYER   1   ROW     1   COL     9   RATE     832.500    
 BOUNDARY     10   LAYER   1   ROW     1   COL    10   RATE     832.500    
 BOUNDARY     11   LAYER   1   ROW     1   COL    11   RATE     832.500    
 BOUNDARY     12   LAYER   1   ROW     1   COL    12   RATE     832.500    
 BOUNDARY     13   LAYER   1   ROW     1   COL    13   RATE     832.500    
 BOUNDARY     14   LAYER   1   ROW     1   COL    14   RATE     832.500    
 BOUNDARY     15   LAYER   1   ROW     1   COL    15   RATE     832.500    
 BOUNDARY     16   LAYER   1   ROW     2   COL     1   RATE     832.500    
 BOUNDARY     17   LAYER   1   ROW     2   COL     2   RATE     832.500    
 BOUNDARY     18   LAYER   1   ROW     2   COL     3   RATE     832.500    
 BOUNDARY     19   LAYER   1   ROW     2   COL     4   RATE     832.500    
 BOUNDARY     20   LAYER   1   ROW     2   COL     5   RATE     832.500    
 BOUNDARY     21   LAYER   1   ROW     2   COL     6   RATE     832.500    
 BOUNDARY     22   LAYER   1   ROW     2   COL     7   RATE     832.500    
 BOUNDARY     23   LAYER   1   ROW     2   COL     8   RATE     832.500    
 BOUNDARY     24   LAYER   1   ROW     2   COL     9   RATE     832.500    
 BOUNDARY     25   LAYER   1   ROW     2   COL    10   RATE     832.500    
 BOUNDARY     26   LAYER   1   ROW     2   COL    11   RATE     832.500    
 BOUNDARY     27   LAYER   1   ROW     2   COL    12   RATE     832.500    
 BOUNDARY     28   LAYER   1   ROW     2   COL    13   RATE     832.500    
 BOUNDARY     29   LAYER   1   ROW     2   COL    14   RATE     832.500    
 BOUNDARY     30   LAYER   1   ROW     2   COL    15   RATE     832.500    
 BOUNDARY     31   LAYER   1   ROW     3   COL     1   RATE     832.500    
 BOUNDARY     32   LAYER   1   ROW     3   COL     2   RATE     832.500    
 BOUNDARY     33   LAYER   1   ROW     3   COL     3   RATE     832.500    
 BOUNDARY     34   LAYER   1   ROW     3   COL     4   RATE     832.500    
 BOUNDARY     35   LAYER   1   ROW     3   COL     5   RATE     832.500    
 BOUNDARY     36   LAYER   1   ROW     3   COL     6   RATE     832.500    
 BOUNDARY     37   LAYER   1   ROW     3   COL     7   RATE     832.500    
 BOUNDARY     38   LAYER   1   ROW     3   COL     8   RATE     832.500    
 BOUNDARY     39   LAYER   1   ROW     3   COL     9   RATE     832.500    
 BOUNDARY     40   LAYER   1   ROW     3   COL    10   RATE     832.500    
 BOUNDARY     41   LAYER   1   ROW     3   COL    11   RATE     832.500    
 BOUNDARY     42   LAYER   1   ROW     3   COL    12   RATE     832.500    
 BOUNDARY     43   LAYER   1   ROW     3   COL    13   RATE     832.500    
 BOUNDARY     44   LAYER   1   ROW     3   COL    14   RATE     832.500    
 BOUNDARY     45   LAYER   1   ROW     3   COL    15   RATE     832.500    
 BOUNDARY     46   LAYER   1   ROW     4   COL     1   RATE     832.500    
 BOUNDARY     47   LAYER   1   ROW     4   COL     2   RATE     832.500    
 BOUNDARY     48   LAYER   1   ROW     4   COL     3   RATE     832.500    
 BOUNDARY     49   LAYER   1   ROW     4   COL     4   RATE     832.500    
 BOUNDARY     50   LAYER   1   ROW     4   COL     5   RATE     832.500    
 BOUNDARY     51   LAYER   1   ROW     4   COL     6   RATE     832.500    
 BOUNDARY     52   LAYER   1   ROW     4   COL     7   RATE     832.500    
 BOUNDARY     53   LAYER   1   ROW     4   COL     8   RATE     832.500    
 BOUNDARY     54   LAYER   1   ROW     4   COL     9   RATE     832.500    
 BOUNDARY     55   LAYER   1   ROW     4   COL    10   RATE     832.500    
 BOUNDARY     56   LAYER   1   ROW     4   COL    11   RATE     832.500    
 BOUNDARY     57   LAYER   1   ROW     4   COL    12   RATE     832.500    
 BOUNDARY     58   LAYER   1   ROW     4   COL    13   RATE     832.500    
 BOUNDARY     59   LAYER   1   ROW     4   COL    14   RATE     832.500    
 BOUNDARY     60   LAYER   1   ROW     4   COL    15   RATE     832.500    
 BOUNDARY     61   LAYER   1   ROW     5   COL     1   RATE     832.500    
 BOUNDARY     62   LAYER   1   ROW     5   COL     2   RATE     832.500    
 BOUNDARY     63   LAYER   1   ROW     5   COL     3   RATE     832.500    
 BOUNDARY     64   LAYER   1   ROW     5   COL     4   RATE     832.500    
 BOUNDARY     65   LAYER   1   ROW     5   COL     5   RATE     832.500    
 BOUNDARY     66   LAYER   1   ROW     5   COL     6   RATE     832.500    
 BOUNDARY     67   LAYER   1   ROW     5   COL     7   RATE     832.500    
 BOUNDARY     68   LAYER   1   ROW     5   COL     8   RATE     832.500    
 BOUNDARY     69   LAYER   1   ROW     5   COL     9   RATE     832.500    
 BOUNDARY     70   LAYER   1   ROW     5   COL    10   RATE     832.500    
 BOUNDARY     71   LAYER   1   ROW     5   COL    11   RATE     832.500    
 BOUNDARY     72   LAYER   1   ROW     5   COL    12   RATE     832.500    
 BOUNDARY     73   LAYER   1   ROW     5   COL    13   RATE     832.500    
 BOUNDARY     74   LAYER   1   ROW     5   COL    14   RATE     832.500    
 BOUNDARY     75   LAYER   1   ROW     5   COL    15   RATE     832.500    
 BOUNDARY     76   LAYER   1   ROW     6   COL     1   RATE     832.500    
 BOUNDARY     77   LAYER   1   ROW     6   COL     2   RATE     832.500    
 BOUNDARY     78   LAYER   1   ROW     6   COL     3   RATE     832.500    
 BOUNDARY     79   LAYER   1   ROW     6   COL     4   RATE     832.500    
 BOUNDARY     80   LAYER   1   ROW     6   COL     5   RATE     832.500    
 BOUNDARY     81   LAYER   1   ROW     6   COL     6   RATE     832.500    
 BOUNDARY     82   LAYER   1   ROW     6   COL     7   RATE     832.500    
 BOUNDARY     83   LAYER   1   ROW     6   COL     8   RATE     832.500    
 BOUNDARY     84   LAYER   1   ROW     6   COL     9   RATE     832.500    
 BOUNDARY     85   LAYER   1   ROW     6   COL    10   RATE     832.500    
 BOUNDARY     86   LAYER   1   ROW     6   COL    11   RATE     832.500    
 BOUNDARY     87   LAYER   1   ROW     6   COL    12   RATE     832.500    
 BOUNDARY     88   LAYER   1   ROW     6   COL    13   RATE     832.500    
 BOUNDARY     89   LAYER   1   ROW     6   COL    14   RATE     832.500    
 BOUNDARY     90   LAYER   1   ROW     6   COL    15   RATE     832.500    
 BOUNDARY     91   LAYER   1   ROW     7   COL     1   RATE     832.500    
 BOUNDARY     92   LAYER   1   ROW     7   COL     2   RATE     832.500    
 BOUNDARY     93   LAYER   1   ROW     7   COL     3   RATE     832.500    
 BOUNDARY     94   LAYER   1   ROW     7   COL     4   RATE     832.500    
 BOUNDARY     95   LAYER   1   ROW     7   COL     5   RATE     832.500    
 BOUNDARY     96   LAYER   1   ROW     7   COL     6   RATE     832.500    
 BOUNDARY     97   LAYER   1   ROW     7   COL     7   RATE     832.500    
 BOUNDARY     98   LAYER   1   ROW     7   COL     8   RATE     832.500    
 BOUNDARY     99   LAYER   1   ROW     7   COL     9   RATE     832.500    
 BOUNDARY    100   LAYER   1   ROW     7   COL    10   RATE     832.500    
 BOUNDARY    101   LAYER   1   ROW     7   COL    11   RATE     832.500    
 BOUNDARY    102   LAYER   1   ROW     7   COL    12   RATE     832.500    
 BOUNDARY    103   LAYER   1   ROW     7   COL    13   RATE     832.500    
 BOUNDARY    104   LAYER   1   ROW     7   COL    14   RATE     832.500    
 BOUNDARY    105   LAYER   1   ROW     7   COL    15   RATE     832.500    
 BOUNDARY    106   LAYER   1   ROW     8   COL     1   RATE     832.500    
 BOUNDARY    107   LAYER   1   ROW     8   COL     2   RATE     832.500    
 BOUNDARY    108   LAYER   1   ROW     8   COL     3   RATE     832.500    
 BOUNDARY    109   LAYER   1   ROW     8   COL     4   RATE     832.500    
 BOUNDARY    110   LAYER   1   ROW     8   COL     5   RATE     832.500    
 BOUNDARY    111   LAYER   1   ROW     8   COL     6   RATE     832.500    
 BOUNDARY    112   LAYER   1   ROW     8   COL     7   RATE     832.500    
 BOUNDARY    113   LAYER   1   ROW     8   COL     8   RATE     832.500    
 BOUNDARY    114   LAYER   1   ROW     8   COL     9   RATE     832.500    
 BOUNDARY    115   LAYER   1   ROW     8   COL    10   RATE     832.500    
 BOUNDARY    116   LAYER   1   ROW     8   COL    11   RATE     832.500    
 BOUNDARY    117   LAYER   1   ROW     8   COL    12   RATE     832.500    
 BOUNDARY    118   LAYER   1   ROW     8   COL    13   RATE     832.500    
 BOUNDARY    119   LAYER   1   ROW     8   COL    14   RATE     832.500    
 BOUNDARY    120   LAYER   1   ROW     8   COL    15   RATE     832.500    
 BOUNDARY    121   LAYER   1   ROW     9   COL     1   RATE     832.500    
 BOUNDARY    122   LAYER   1   ROW     9   COL     2   RATE     832.500    
 BOUNDARY    123   LAYER   1   ROW     9   COL     3   RATE     832.500    
 BOUNDARY    124   LAYER   1   ROW     9   COL     4   RATE     832.500    
 BOUNDARY    125   LAYER   1   ROW     9   COL     5   RATE     832.500    
 BOUNDARY    126   LAYER   1   ROW     9   COL     6   RATE     832.500    
 BOUNDARY    127   LAYER   1   ROW     9   COL     7   RATE     832.500    
 BOUNDARY    128   LAYER   1   ROW     9   COL     8   RATE     832.500    
 BOUNDARY    129   LAYER   1   ROW     9   COL     9   RATE     832.500    
 BOUNDARY    130   LAYER   1   ROW     9   COL    10   RATE     832.500    
 BOUNDARY    131   LAYER   1   ROW     9   COL    11   RATE     832.500    
 BOUNDARY    132   LAYER   1   ROW     9   COL    12   RATE     832.500    
 BOUNDARY    133   LAYER   1   ROW     9   COL    13   RATE     832.500    
 BOUNDARY    134   LAYER   1   ROW     9   COL    14   RATE     832.500    
 BOUNDARY    135   LAYER   1   ROW     9   COL    15   RATE     832.500    
 BOUNDARY    136   LAYER   1   ROW    10   COL     1   RATE     832.500    
 BOUNDARY    137   LAYER   1   ROW    10   COL     2   RATE     832.500    
 BOUNDARY    138   LAYER   1   ROW    10   COL     3   RATE     832.500    
 BOUNDARY    139   LAYER   1   ROW    10   COL     4   RATE     832.500    
 BOUNDARY    140   LAYER   1   ROW    10   COL     5   RATE     832.500    
 BOUNDARY    141   LAYER   1   ROW    10   COL     6   RATE     832.500    
 BOUNDARY    142   LAYER   1   ROW    10   COL     7   RATE     832.500    
 BOUNDARY    143   LAYER   1   ROW    10   COL     8   RATE     832.500    
 BOUNDARY    144   LAYER   1   ROW    10   COL     9   RATE     832.500    
 BOUNDARY    145   LAYER   1   ROW    10   COL    10   RATE     832.500    
 BOUNDARY    146   LAYER   1   ROW    10   COL    11   RATE     832.500    
 BOUNDARY    147   LAYER   1   ROW    10   COL    12   RATE     832.500    
 BOUNDARY    148   LAYER   1   ROW    10   COL    13   RATE     832.500    
 BOUNDARY    149   LAYER   1   ROW    10   COL    14   RATE     832.500    
 BOUNDARY    150   LAYER   1   ROW    10   COL    15   RATE     832.500    
 UBDSV4 SAVING ET SEGS          ON UNIT   1016 AT TIME STEP      4, STRESS PERIOD      6

 ET SEGS            PERIOD  6   STEP  4
 BOUNDARY      1   LAYER   1   ROW     1   COL     1   RATE    -4.04413    
 BOUNDARY      2   LAYER   1   ROW     1   COL     2   RATE    -12.9984    
 BOUNDARY      3   LAYER   1   ROW     1   COL     3   RATE    -84.4076    
 BOUNDARY      4   LAYER   1   ROW     1   COL     4   RATE    -115.312    
 BOUNDARY      5   LAYER   1   ROW     1   COL     5   RATE    -115.312    
 BOUNDARY      6   LAYER   1   ROW     1   COL     6   RATE    -115.312    
 BOUNDARY      7   LAYER   1   ROW     1   COL     7   RATE    -115.312    
 BOUNDARY      8   LAYER   1   ROW     1   COL     8   RATE    -115.312    
 BOUNDARY      9   LAYER   1   ROW     1   COL     9   RATE    -115.312    
 BOUNDARY     10   LAYER   1   ROW     1   COL    10   RATE    -115.312    
 BOUNDARY     11   LAYER   1   ROW     1   COL    11   RATE    -115.312    
 BOUNDARY     12   LAYER   1   ROW     1   COL    12   RATE    -24.8748    
 BOUNDARY     13   LAYER   1   ROW     1   COL    13   RATE   -0.599355    
 BOUNDARY     14   LAYER   1   ROW     1   COL    14   RATE     0.00000    
 BOUNDARY     15   LAYER   1   ROW     1   COL    15   RATE     0.00000    
 BOUNDARY     16   LAYER   1   ROW     2   COL     1   RATE     0.00000    
 BOUNDARY     17   LAYER   1   ROW     2   COL     2   RATE    -6.73062    
 BOUNDARY     18   LAYER   1   ROW     2   COL     3   RATE    -52.0505    
 BOUNDARY     19   LAYER   1   ROW     2   COL     4   RATE    -115.312    
 BOUNDARY     20   LAYER   1   ROW     2   COL     5   RATE    -115.312    
 BOUNDARY     21   LAYER   1   ROW     2   COL     6   RATE    -115.312    
 BOUNDARY     22   LAYER   1   ROW     2   COL     7   RATE    -115.312    
 BOUNDARY     23   LAYER   1   ROW     2   COL     8   RATE    -115.312    
 BOUNDARY     24   LAYER   1   ROW     2   COL     9   RATE    -115.312    
 BOUNDARY     25   LAYER   1   ROW     2   COL    10   RATE    -115.312    
 BOUNDARY     26   LAYER   1   ROW     2   COL    11   RATE    -115.312    
 BOUNDARY     27   LAYER   1   ROW     2   COL    12   RATE    -26.8856    
 BOUNDARY     28   LAYER   1   ROW     2   COL    13   RATE    -1.73635    
 BOUNDARY     29   LAYER   1   ROW     2   COL    14   RATE     0.00000    
 BOUNDARY     30   LAYER   1   ROW     2   COL    15   RATE     0.00000    
 BOUNDARY     31   LAYER   1   ROW     3   COL     1   RATE     0.00000    
 BOUNDARY     32   LAYER   1   ROW     3   COL     2   RATE     0.00000    
 BOUNDARY     33   LAYER   1   ROW     3   COL     3   RATE    -31.0308    
 BOUNDARY     34   LAYER   1   ROW     3   COL     4   RATE    -115.312    
 BOUNDARY     35   LAYER   1   ROW     3   COL     5   RATE    -115.312    
 BOUNDARY     36   LAYER   1   ROW     3   COL     6   RATE    -115.312    
 BOUNDARY     37   LAYER   1   ROW     3   COL     7   RATE    -115.312    
 BOUNDARY     38   LAYER   1   ROW     3   COL     8   RATE    -115.312    
 BOUNDARY     39   LAYER   1   ROW     3   COL     9   RATE    -115.312    
 BOUNDARY     40   LAYER   1   ROW     3   COL    10   RATE    -115.312    
 BOUNDARY     41   LAYER   1   ROW     3   COL    11   RATE    -115.312    
 BOUNDARY     42   LAYER   1   ROW     3   COL    12   RATE    -30.2722    
 BOUNDARY     43   LAYER   1   ROW     3   COL    13   RATE    -3.80623    
 BOUNDARY     44   LAYER   1   ROW     3   COL    14   RATE     0.00000    
 BOUNDARY     45   LAYER   1   ROW     3   COL    15   RATE     0.00000    
 BOUNDARY     46   LAYER   1   ROW     4   COL     1   RATE     0.00000    
 BOUNDARY     47   LAYER   1   ROW     4   COL     2   RATE    -4.98719    
 BOUNDARY     48   LAYER   1   ROW     4   COL     3   RATE    -39.4973    
 BOUNDARY     49   LAYER   1   ROW     4   COL     4   RATE    -115.312    
 BOUNDARY     50   LAYER   1   ROW     4   COL     5   RATE    -115.312    
 BOUNDARY     51   LAYER   1   ROW     4   COL     6   RATE    -115.312    
 BOUNDARY     52   LAYER   1   ROW     4   COL     7   RATE    -115.312    
 BOUNDARY     53   LAYER   1   ROW     4   COL     8   RATE    -115.312    
 BOUNDARY     54   LAYER   1   ROW     4   COL     9   RATE    -115.312    
 BOUNDARY     55   LAYER   1   ROW     4   COL    10   RATE    -115.312    
 BOUNDARY     56   LAYER   1   ROW     4   COL    11   RATE    -115.312    
 BOUNDARY     57   LAYER   1   ROW     4   COL    12   RATE    -33.4787    
 BOUNDARY     58   LAYER   1   ROW     4   COL    13   RATE    -5.47611    
 BOUNDARY     59   LAYER   1   ROW     4   COL    14   RATE     0.00000    
 BOUNDARY     60   LAYER   1   ROW     4   COL    15   RATE     0.00000    
 BOUNDARY     61   LAYER   1   ROW     5   COL     1   RATE     0.00000    
 BOUNDARY     62   LAYER   1   ROW     5   COL     2   RATE    -8.43730    
 BOUNDARY     63   LAYER   1   ROW     5   COL     3   RATE    -63.2839    
 BOUNDARY     64   LAYER   1   ROW     5   COL     4   RATE    -115.312    
 BOUNDARY     65   LAYER   1   ROW     5   COL     5   RATE    -115.312    
 BOUNDARY     66   LAYER   1   ROW     5   COL     6   RATE    -115.312    
 BOUNDARY     67   LAYER   1   ROW     5   COL     7   RATE    -115.312    
 BOUNDARY     68   LAYER   1   ROW     5   COL     8   RATE    -115.312    
 BOUNDARY     69   LAYER   1   ROW     5   COL     9   RATE    -115.312    
 BOUNDARY     70   LAYER   1   ROW     5   COL    10   RATE    -115.312    
 BOUNDARY     71   LAYER   1   ROW     5   COL    11   RATE    -115.312    
 BOUNDARY     72   LAYER   1   ROW     5   COL    12   RATE    -40.2341    
 BOUNDARY     73   LAYER   1   ROW     5   COL    13   RATE    -6.48821    
 BOUNDARY     74   LAYER   1   ROW     5   COL    14   RATE     0.00000    
 BOUNDARY     75   LAYER   1   ROW     5   COL    15   RATE     0.00000    
 BOUNDARY     76   LAYER   1   ROW     6   COL     1   RATE     0.00000    
 BOUNDARY     77   LAYER   1   ROW     6   COL     2   RATE    -6.75401    
 BOUNDARY     78   LAYER   1   ROW     6   COL     3   RATE    -67.5464    
 BOUNDARY     79   LAYER   1   ROW     6   COL     4   RATE    -115.312    
 BOUNDARY     80   LAYER   1   ROW     6   COL     5   RATE    -115.312    
 BOUNDARY     81   LAYER   1   ROW     6   COL     6   RATE    -115.312    
 BOUNDARY     82   LAYER   1   ROW     6   COL     7   RATE    -115.312    
 BOUNDARY     83   LAYER   1   ROW     6   COL     8   RATE    -115.312    
 BOUNDARY     84   LAYER   1   ROW     6   COL     9   RATE    -115.312    
 BOUNDARY     85   LAYER   1   ROW     6   COL    10   RATE    -115.312    
 BOUNDARY     86   LAYER   1   ROW     6   COL    11   RATE    -115.312    
 BOUNDARY     87   LAYER   1   ROW     6   COL    12   RATE    -44.0578    
 BOUNDARY     88   LAYER   1   ROW     6   COL    13   RATE    -6.42958    
 BOUNDARY     89   LAYER   1   ROW     6   COL    14   RATE     0.00000    
 BOUNDARY     90   LAYER   1   ROW     6   COL    15   RATE     0.00000    
 BOUNDARY     91   LAYER   1   ROW     7   COL     1   RATE     0.00000    
 BOUNDARY     92   LAYER   1   ROW     7   COL     2   RATE    -2.62901    
 BOUNDARY     93   LAYER   1   ROW     7   COL     3   RATE    -75.3496    
 BOUNDARY     94   LAYER   1   ROW     7   COL     4   RATE    -115.312    
 BOUNDARY     95   LAYER   1   ROW     7   COL     5   RATE    -115.312    
 BOUNDARY     96   LAYER   1   ROW     7   COL     6   RATE    -115.312    
 BOUNDARY     97   LAYER   1   ROW     7   COL     7   RATE    -115.312    
 BOUNDARY     98   LAYER   1   ROW     7   COL     8   RATE    -115.312    
 BOUNDARY     99   LAYER   1   ROW     7   COL     9   RATE    -115.312    
 BOUNDARY    100   LAYER   1   ROW     7   COL    10   RATE    -115.312    
 BOUNDARY    101   LAYER   1   ROW     7   COL    11   RATE    -115.312    
 BOUNDARY    102   LAYER   1   ROW     7   COL    12   RATE    -43.2314    
 BOUNDARY    103   LAYER   1   ROW     7   COL    13   RATE    -5.60893    
 BOUNDARY    104   LAYER   1   ROW     7   COL    14   RATE     0.00000    
 BOUNDARY    105   LAYER   1   ROW     7   COL    15   RATE     0.00000    
 BOUNDARY    106   LAYER   1   ROW     8   COL     1   RATE     0.00000    
 BOUNDARY    107   LAYER   1   ROW     8   COL     2   RATE    -18.2053    
 BOUNDARY    108   LAYER   1   ROW     8   COL     3   RATE    -115.312    
 BOUNDARY    109   LAYER   1   ROW     8   COL     4   RATE    -115.312    
 BOUNDARY    110   LAYER   1   ROW     8   COL     5   RATE    -115.312    
 BOUNDARY    111   LAYER   1   ROW     8   COL     6   RATE    -115.312    
 BOUNDARY    112   LAYER   1   ROW     8   COL     7   RATE    -115.312    
 BOUNDARY    113   LAYER   1   ROW     8   COL     8   RATE    -115.312    
 BOUNDARY    114   LAYER   1   ROW     8   COL     9   RATE    -115.312    
 BOUNDARY    115   LAYER   1   ROW     8   COL    10   RATE    -115.312    
 BOUNDARY    116   LAYER   1   ROW     8   COL    11   RATE    -115.312    
 BOUNDARY    117   LAYER   1   ROW     8   COL    12   RATE    -45.8047    
 BOUNDARY    118   LAYER   1   ROW     8   COL    13   RATE    -5.65731    
 BOUNDARY    119   LAYER   1   ROW     8   COL    14   RATE     0.00000    
 BOUNDARY    120   LAYER   1   ROW     8   COL    15   RATE     0.00000    
 BOUNDARY    121   LAYER   1   ROW     9   COL     1   RATE    -26.9985    
 BOUNDARY    122   LAYER   1   ROW     9   COL     2   RATE    -97.7343    
 BOUNDARY    123   LAYER   1   ROW     9   COL     3   RATE    -115.312    
 BOUNDARY    124   LAYER   1   ROW     9   COL     4   RATE    -115.312    
 BOUNDARY    125   LAYER   1   ROW     9   COL     5   RATE    -115.312    
 BOUNDARY    126   LAYER   1   ROW     9   COL     6   RATE    -115.312    
 BOUNDARY    127   LAYER   1   ROW     9   COL     7   RATE    -115.312    
 BOUNDARY    128   LAYER   1   ROW     9   COL     8   RATE    -115.312    
 BOUNDARY    129   LAYER   1   ROW     9   COL     9   RATE    -115.312    
 BOUNDARY    130   LAYER   1   ROW     9   COL    10   RATE    -115.312    
 BOUNDARY    131   LAYER   1   ROW     9   COL    11   RATE    -115.312    
 BOUNDARY    132   LAYER   1   ROW     9   COL    12   RATE    -52.6385    
 BOUNDARY    133   LAYER   1   ROW     9   COL    13   RATE    -6.65977    
 BOUNDARY    134   LAYER   1   ROW     9   COL    14   RATE     0.00000    
 BOUNDARY    135   LAYER   1   ROW     9   COL    15   RATE     0.00000    
 BOUNDARY    136   LAYER   1   ROW    10   COL     1   RATE    -107.075    
 BOUNDARY    137   LAYER   1   ROW    10   COL     2   RATE    -115.312    
 BOUNDARY    138   LAYER   1   ROW    10   COL     3   RATE    -115.312    
 BOUNDARY    139   LAYER   1   ROW    10   COL     4   RATE    -115.312    
 BOUNDARY    140   LAYER   1   ROW    10   COL     5   RATE    -115.312    
 BOUNDARY    141   LAYER   1   ROW    10   COL     6   RATE    -115.312    
 BOUNDARY    142   LAYER   1   ROW    10   COL     7   RATE    -115.312    
 BOUNDARY    143   LAYER   1   ROW    10   COL     8   RATE    -115.312    
 BOUNDARY    144   LAYER   1   ROW    10   COL     9   RATE    -115.312    
 BOUNDARY    145   LAYER   1   ROW    10   COL    10   RATE    -115.312    
 BOUNDARY    146   LAYER   1   ROW    10   COL    11   RATE    -115.312    
 BOUNDARY    147   LAYER   1   ROW    10   COL    12   RATE    -57.5260    
 BOUNDARY    148   LAYER   1   ROW    10   COL    13   RATE    -7.29836    
 BOUNDARY    149   LAYER   1   ROW    10   COL    14   RATE     0.00000    
 BOUNDARY    150   LAYER   1   ROW    10   COL    15   RATE     0.00000    

 HEAD WILL BE SAVED ON UNIT 1017 AT END OF TIME STEP    4, STRESS PERIOD    6
RIV   no.    1 value from time series:   101.00     for time:  125.0     to  126.0    
RIV   no.    2 value from time series:   101.00     for time:  125.0     to  126.0    
RIV   no.    3 value from time series:   111.50     for time:  125.0     to  126.0    
RIV   no.    4 value from time series:   111.50     for time:  125.0     to  126.0    
RIV   no.    5 value from time series:   115.10     for time:  125.0     to  126.0    
RIV   no.    6 value from time series:   115.10     for time:  125.0     to  126.0    
RIV   no.    7 value from time series:   104.00     for time:  125.0     to  126.0    
RIV   no.    8 value from time series:   104.00     for time:  125.0     to  126.0    
RIV   no.    9 value from time series:   113.50     for time:  125.0     to  126.0    
RIV   no.   10 value from time series:   113.50     for time:  125.0     to  126.0    
RIV   no.    1 value from time series:   101.00     for time:  125.0     to  126.0    
RIV   no.    2 value from time series:   101.00     for time:  125.0     to  126.0    
RIV   no.    3 value from time series:   111.50     for time:  125.0     to  126.0    
RIV   no.    4 value from time series:   111.50     for time:  125.0     to  126.0    
RIV   no.    5 value from time series:   115.10     for time:  125.0     to  126.0    
RIV   no.    6 value from time series:   115.10     for time:  125.0     to  126.0    
RIV   no.    7 value from time series:   104.00     for time:  125.0     to  126.0    
RIV   no.    8 value from time series:   104.00     for time:  125.0     to  126.0    
RIV   no.    9 value from time series:   113.50     for time:  125.0     to  126.0    
RIV   no.   10 value from time series:   113.50     for time:  125.0     to  126.0    

 OUTPUT CONTROL FOR STRESS PERIOD    6   TIME STEP    5
    SAVE BUDGET
    SAVE HEAD
    SAVE HEAD FOR ALL LAYERS
 UBDSV1 SAVING          STORAGE ON UNIT   1016 AT TIME STEP      5, STRESS PERIOD      6
 UBDSV1 SAVING FLOW RIGHT FACE  ON UNIT   1016 AT TIME STEP      5, STRESS PERIOD      6
 UBDSV1 SAVING FLOW FRONT FACE  ON UNIT   1016 AT TIME STEP      5, STRESS PERIOD      6
 UBDSV1 SAVING FLOW LOWER FACE  ON UNIT   1016 AT TIME STEP      5, STRESS PERIOD      6
 UBDSV4 SAVING WELLS NEAR RIVER ON UNIT   1016 AT TIME STEP      5, STRESS PERIOD      6
 UBDSV4 SAVING RIVER            ON UNIT   1016 AT TIME STEP      5, STRESS PERIOD      6

 RIVER              PERIOD  6   STEP  5
 BOUNDARY      1   LAYER   1   ROW     1   COL    15   RATE    -5010.24    
 BOUNDARY      2   LAYER   1   ROW     2   COL    15   RATE    -6137.05      RIV2
 BOUNDARY      3   LAYER   1   ROW     3   COL    15   RATE    -2402.23      RIV3
 BOUNDARY      4   LAYER   1   ROW     4   COL    15   RATE    -3867.22    
 BOUNDARY      5   LAYER   1   ROW     5   COL    15   RATE    -2503.55    
 BOUNDARY      6   LAYER   1   ROW     6   COL    15   RATE    -1850.34    
 BOUNDARY      7   LAYER   1   ROW     7   COL    15   RATE    -6336.83      RIVX
 BOUNDARY      8   LAYER   1   ROW     8   COL    15   RATE    -6187.28      RIVX
 BOUNDARY      9   LAYER   1   ROW     9   COL    15   RATE    -2396.80      RIVX
 BOUNDARY     10   LAYER   1   ROW    10   COL    15   RATE    -3304.23    

 GHB LAKES          PERIOD  6   STEP  5
 BOUNDARY      1   LAYER   1   ROW     3   COL     1   RATE    -14965.5    
 BOUNDARY      2   LAYER   1   ROW     7   COL     1   RATE    -2236.83      GHB2_UPPER
 BOUNDARY      3   LAYER   1   ROW     7   COL     1   RATE    -13376.9      GHB2_LOWER
 UBDSV4 SAVING RECHARGE         ON UNIT   1016 AT TIME STEP      5, STRESS PERIOD      6

 RECHARGE           PERIOD  6   STEP  5
 BOUNDARY      1   LAYER   1   ROW     1   COL     1   RATE     834.167    
 BOUNDARY      2   LAYER   1   ROW     1   COL     2   RATE     834.167    
 BOUNDARY      3   LAYER   1   ROW     1   COL     3   RATE     834.167    
 BOUNDARY      4   LAYER   1   ROW     1   COL     4   RATE     834.167    
 BOUNDARY      5   LAYER   1   ROW     1   COL     5   RATE     834.167    
 BOUNDARY      6   LAYER   1   ROW     1   COL     6   RATE     834.167    
 BOUNDARY      7   LAYER   1   ROW     1   COL     7   RATE     834.167    
 BOUNDARY      8   LAYER   1   ROW     1   COL     8   RATE     834.167    
 BOUNDARY      9   LAYER   1   ROW     1   COL     9   RATE     834.167    
 BOUNDARY     10   LAYER   1   ROW     1   COL    10   RATE     834.167    
 BOUNDARY     11   LAYER   1   ROW     1   COL    11   RATE     834.167    
 BOUNDARY     12   LAYER   1   ROW     1   COL    12   RATE     834.167    
 BOUNDARY     13   LAYER   1   ROW     1   COL    13   RATE     834.167    
 BOUNDARY     14   LAYER   1   ROW     1   COL    14   RATE     834.167    
 BOUNDARY     15   LAYER   1   ROW     1   COL    15   RATE     834.167    
 BOUNDARY     16   LAYER   1   ROW     2   COL     1   RATE     834.167    
 BOUNDARY     17   LAYER   1   ROW     2   COL     2   RATE     834.167    
 BOUNDARY     18   LAYER   1   ROW     2   COL     3   RATE     834.167    
 BOUNDARY     19   LAYER   1   ROW     2   COL     4   RATE     834.167    
 BOUNDARY     20   LAYER   1   ROW     2   COL     5   RATE     834.167    
 BOUNDARY     21   LAYER   1   ROW     2   COL     6   RATE     834.167    
 BOUNDARY     22   LAYER   1   ROW     2   COL     7   RATE     834.167    
 BOUNDARY     23   LAYER   1   ROW     2   COL     8   RATE     834.167    
 BOUNDARY     24   LAYER   1   ROW     2   COL     9   RATE     834.167    
 BOUNDARY     25   LAYER   1   ROW     2   COL    10   RATE     834.167    
 BOUNDARY     26   LAYER   1   ROW     2   COL    11   RATE     834.167    
 BOUNDARY     27   LAYER   1   ROW     2   COL    12   RATE     834.167    
 BOUNDARY     28   LAYER   1   ROW     2   COL    13   RATE     834.167    
 BOUNDARY     29   LAYER   1   ROW     2   COL    14   RATE     834.167    
 BOUNDARY     30   LAYER   1   ROW     2   COL    15   RATE     834.167    
 BOUNDARY     31   LAYER   1   ROW     3   COL     1   RATE     834.167    
 BOUNDARY     32   LAYER   1   ROW     3   COL     2   RATE     834.167    
 BOUNDARY     33   LAYER   1   ROW     3   COL     3   RATE     834.167    
 BOUNDARY     34   LAYER   1   ROW     3   COL     4   RATE     834.167    
 BOUNDARY     35   LAYER   1   ROW     3   COL     5   RATE     834.167    
 BOUNDARY     36   LAYER   1   ROW     3   COL     6   RATE     834.167    
 BOUNDARY     37   LAYER   1   ROW     3   COL     7   RATE     834.167    
 BOUNDARY     38   LAYER   1   ROW     3   COL     8   RATE     834.167    
 BOUNDARY     39   LAYER   1   ROW     3   COL     9   RATE     834.167    
 BOUNDARY     40   LAYER   1   ROW     3   COL    10   RATE     834.167    
 BOUNDARY     41   LAYER   1   ROW     3   COL    11   RATE     834.167    
 BOUNDARY     42   LAYER   1   ROW     3   COL    12   RATE     834.167    
 BOUNDARY     43   LAYER   1   ROW     3   COL    13   RATE     834.167    
 BOUNDARY     44   LAYER   1   ROW     3   COL    14   RATE     834.167    
 BOUNDARY     45   LAYER   1   ROW     3   COL    15   RATE     834.167    
 BOUNDARY     46   LAYER   1   ROW     4   COL     1   RATE     834.167    
 BOUNDARY     47   LAYER   1   ROW     4   COL     2   RATE     834.167    
 BOUNDARY     48   LAYER   1   ROW     4   COL     3   RATE     834.167    
 BOUNDARY     49   LAYER   1   ROW     4   COL     4   RATE     834.167    
 BOUNDARY     50   LAYER   1   ROW     4   COL     5   RATE     834.167    
 BOUNDARY     51   LAYER   1   ROW     4   COL     6   RATE     834.167    
 BOUNDARY     52   LAYER   1   ROW     4   COL     7   RATE     834.167    
 BOUNDARY     53   LAYER   1   ROW     4   COL     8   RATE     834.167    
 BOUNDARY     54   LAYER   1   ROW     4   COL     9   RATE     834.167    
 BOUNDARY     55   LAYER   1   ROW     4   COL    10   RATE     834.167    
 BOUNDARY     56   LAYER   1   ROW     4   COL    11   RATE     834.167    
 BOUNDARY     57   LAYER   1   ROW     4   COL    12   RATE     834.167    
 BOUNDARY     58   LAYER   1   ROW     4   COL    13   RATE     834.167    
 BOUNDARY     59   LAYER   1   ROW     4   COL    14   RATE     834.167    
 BOUNDARY     60   LAYER   1   ROW     4   COL    15   RATE     834.167    
 BOUNDARY     61   LAYER   1   ROW     5   COL     1   RATE     834.167    
 BOUNDARY     62   LAYER   1   ROW     5   COL     2   RATE     834.167    
 BOUNDARY     63   LAYER   1   ROW     5   COL     3   RATE     834.167    
 BOUNDARY     64   LAYER   1   ROW     5   COL     4   RATE     834.167    
 BOUNDARY     65   LAYER   1   ROW     5   COL     5   RATE     834.167    
 BOUNDARY     66   LAYER   1   ROW     5   COL     6   RATE     834.167    
 BOUNDARY     67   LAYER   1   ROW     5   COL     7   RATE     834.167    
 BOUNDARY     68   LAYER   1   ROW     5   COL     8   RATE     834.167    
 BOUNDARY     69   LAYER   1   ROW     5   COL     9   RATE     834.167    
 BOUNDARY     70   LAYER   1   ROW     5   COL    10   RATE     834.167    
 BOUNDARY     71   LAYER   1   ROW     5   COL    11   RATE     834.167    
 BOUNDARY     72   LAYER   1   ROW     5   COL    12   RATE     834.167    
 BOUNDARY     73   LAYER   1   ROW     5   COL    13   RATE     834.167    
 BOUNDARY     74   LAYER   1   ROW     5   COL    14   RATE     834.167    
 BOUNDARY     75   LAYER   1   ROW     5   COL    15   RATE     834.167    
 BOUNDARY     76   LAYER   1   ROW     6   COL     1   RATE     834.167    
 BOUNDARY     77   LAYER   1   ROW     6   COL     2   RATE     834.167    
 BOUNDARY     78   LAYER   1   ROW     6   COL     3   RATE     834.167    
 BOUNDARY     79   LAYER   1   ROW     6   COL     4   RATE     834.167    
 BOUNDARY     80   LAYER   1   ROW     6   COL     5   RATE     834.167    
 BOUNDARY     81   LAYER   1   ROW     6   COL     6   RATE     834.167    
 BOUNDARY     82   LAYER   1   ROW     6   COL     7   RATE     834.167    
 BOUNDARY     83   LAYER   1   ROW     6   COL     8   RATE     834.167    
 BOUNDARY     84   LAYER   1   ROW     6   COL     9   RATE     834.167    
 BOUNDARY     85   LAYER   1   ROW     6   COL    10   RATE     834.167    
 BOUNDARY     86   LAYER   1   ROW     6   COL    11   RATE     834.167    
 BOUNDARY     87   LAYER   1   ROW     6   COL    12   RATE     834.167    
 BOUNDARY     88   LAYER   1   ROW     6   COL    13   RATE     834.167    
 BOUNDARY     89   LAYER   1   ROW     6   COL    14   RATE     834.167    
 BOUNDARY     90   LAYER   1   ROW     6   COL    15   RATE     834.167    
 BOUNDARY     91   LAYER   1   ROW     7   COL     1   RATE     834.167    
 BOUNDARY     92   LAYER   1   ROW     7   COL     2   RATE     834.167    
 BOUNDARY     93   LAYER   1   ROW     7   COL     3   RATE     834.167    
 BOUNDARY     94   LAYER   1   ROW     7   COL     4   RATE     834.167    
 BOUNDARY     95   LAYER   1   ROW     7   COL     5   RATE     834.167    
 BOUNDARY     96   LAYER   1   ROW     7   COL     6   RATE     834.167    
 BOUNDARY     97   LAYER   1   ROW     7   COL     7   RATE     834.167    
 BOUNDARY     98   LAYER   1   ROW     7   COL     8   RATE     834.167    
 BOUNDARY     99   LAYER   1   ROW     7   COL     9   RATE     834.167    
 BOUNDARY    100   LAYER   1   ROW     7   COL    10   RATE     834.167    
 BOUNDARY    101   LAYER   1   ROW     7   COL    11   RATE     834.167    
 BOUNDARY    102   LAYER   1   ROW     7   COL    12   RATE     834.167    
 BOUNDARY    103   LAYER   1   ROW     7   COL    13   RATE     834.167    
 BOUNDARY    104   LAYER   1   ROW     7   COL    14   RATE     834.167    
 BOUNDARY    105   LAYER   1   ROW     7   COL    15   RATE     834.167    
 BOUNDARY    106   LAYER   1   ROW     8   COL     1   RATE     834.167    
 BOUNDARY    107   LAYER   1   ROW     8   COL     2   RATE     834.167    
 BOUNDARY    108   LAYER   1   ROW     8   COL     3   RATE     834.167    
 BOUNDARY    109   LAYER   1   ROW     8   COL     4   RATE     834.167    
 BOUNDARY    110   LAYER   1   ROW     8   COL     5   RATE     834.167    
 BOUNDARY    111   LAYER   1   ROW     8   COL     6   RATE     834.167    
 BOUNDARY    112   LAYER   1   ROW     8   COL     7   RATE     834.167    
 BOUNDARY    113   LAYER   1   ROW     8   COL     8   RATE     834.167    
 BOUNDARY    114   LAYER   1   ROW     8   COL     9   RATE     834.167    
 BOUNDARY    115   LAYER   1   ROW     8   COL    10   RATE     834.167    
 BOUNDARY    116   LAYER   1   ROW     8   COL    11   RATE     834.167    
 BOUNDARY    117   LAYER   1   ROW     8   COL    12   RATE     834.167    
 BOUNDARY    118   LAYER   1   ROW     8   COL    13   RATE     834.167    
 BOUNDARY    119   LAYER   1   ROW     8   COL    14   RATE     834.167    
 BOUNDARY    120   LAYER   1   ROW     8   COL    15   RATE     834.167    
 BOUNDARY    121   LAYER   1   ROW     9   COL     1   RATE     834.167    
 BOUNDARY    122   LAYER   1   ROW     9   COL     2   RATE     834.167    
 BOUNDARY    123   LAYER   1   ROW     9   COL     3   RATE     834.167    
 BOUNDARY    124   LAYER   1   ROW     9   COL     4   RATE     834.167    
 BOUNDARY    125   LAYER   1   ROW     9   COL     5   RATE     834.167    
 BOUNDARY    126   LAYER   1   ROW     9   COL     6   RATE     834.167    
 BOUNDARY    127   LAYER   1   ROW     9   COL     7   RATE     834.167    
 BOUNDARY    128   LAYER   1   ROW     9   COL     8   RATE     834.167    
 BOUNDARY    129   LAYER   1   ROW     9   COL     9   RATE     834.167    
 BOUNDARY    130   LAYER   1   ROW     9   COL    10   RATE     834.167    
 BOUNDARY    131   LAYER   1   ROW     9   COL    11   RATE     834.167    
 BOUNDARY    132   LAYER   1   ROW     9   COL    12   RATE     834.167    
 BOUNDARY    133   LAYER   1   ROW     9   COL    13   RATE     834.167    
 BOUNDARY    134   LAYER   1   ROW     9   COL    14   RATE     834.167    
 BOUNDARY    135   LAYER   1   ROW     9   COL    15   RATE     834.167    
 BOUNDARY    136   LAYER   1   ROW    10   COL     1   RATE     834.167    
 BOUNDARY    137   LAYER   1   ROW    10   COL     2   RATE     834.167    
 BOUNDARY    138   LAYER   1   ROW    10   COL     3   RATE     834.167    
 BOUNDARY    139   LAYER   1   ROW    10   COL     4   RATE     834.167    
 BOUNDARY    140   LAYER   1   ROW    10   COL     5   RATE     834.167    
 BOUNDARY    141   LAYER   1   ROW    10   COL     6   RATE     834.167    
 BOUNDARY    142   LAYER   1   ROW    10   COL     7   RATE     834.167    
 BOUNDARY    143   LAYER   1   ROW    10   COL     8   RATE     834.167    
 BOUNDARY    144   LAYER   1   ROW    10   COL     9   RATE     834.167    
 BOUNDARY    145   LAYER   1   ROW    10   COL    10   RATE     834.167    
 BOUNDARY    146   LAYER   1   ROW    10   COL    11   RATE     834.167    
 BOUNDARY    147   LAYER   1   ROW    10   COL    12   RATE     834.167    
 BOUNDARY    148   LAYER   1   ROW    10   COL    13   RATE     834.167    
 BOUNDARY    149   LAYER   1   ROW    10   COL    14   RATE     834.167    
 BOUNDARY    150   LAYER   1   ROW    10   COL    15   RATE     834.167    
 UBDSV4 SAVING ET SEGS          ON UNIT   1016 AT TIME STEP      5, STRESS PERIOD      6

 ET SEGS            PERIOD  6   STEP  5
 BOUNDARY      1   LAYER   1   ROW     1   COL     1   RATE    -4.09484    
 BOUNDARY      2   LAYER   1   ROW     1   COL     2   RATE    -13.1655    
 BOUNDARY      3   LAYER   1   ROW     1   COL     3   RATE    -85.3565    
 BOUNDARY      4   LAYER   1   ROW     1   COL     4   RATE    -115.937    
 BOUNDARY      5   LAYER   1   ROW     1   COL     5   RATE    -115.937    
 BOUNDARY      6   LAYER   1   ROW     1   COL     6   RATE    -115.937    
 BOUNDARY      7   LAYER   1   ROW     1   COL     7   RATE    -115.937    
 BOUNDARY      8   LAYER   1   ROW     1   COL     8   RATE    -115.937    
 BOUNDARY      9   LAYER   1   ROW     1   COL     9   RATE    -115.937    
 BOUNDARY     10   LAYER   1   ROW     1   COL    10   RATE    -115.937    
 BOUNDARY     11   LAYER   1   ROW     1   COL    11   RATE    -115.937    
 BOUNDARY     12   LAYER   1   ROW     1   COL    12   RATE    -25.1076    
 BOUNDARY     13   LAYER   1   ROW     1   COL    13   RATE   -0.631298    
 BOUNDARY     14   LAYER   1   ROW     1   COL    14   RATE     0.00000    
 BOUNDARY     15   LAYER   1   ROW     1   COL    15   RATE     0.00000    
 BOUNDARY     16   LAYER   1   ROW     2   COL     1   RATE     0.00000    
 BOUNDARY     17   LAYER   1   ROW     2   COL     2   RATE    -6.79548    
 BOUNDARY     18   LAYER   1   ROW     2   COL     3   RATE    -52.8279    
 BOUNDARY     19   LAYER   1   ROW     2   COL     4   RATE    -115.937    
 BOUNDARY     20   LAYER   1   ROW     2   COL     5   RATE    -115.937    
 BOUNDARY     21   LAYER   1   ROW     2   COL     6   RATE    -115.937    
 BOUNDARY     22   LAYER   1   ROW     2   COL     7   RATE    -115.937    
 BOUNDARY     23   LAYER   1   ROW     2   COL     8   RATE    -115.937    
 BOUNDARY     24   LAYER   1   ROW     2   COL     9   RATE    -115.937    
 BOUNDARY     25   LAYER   1   ROW     2   COL    10   RATE    -115.937    
 BOUNDARY     26   LAYER   1   ROW     2   COL    11   RATE    -115.937    
 BOUNDARY     27   LAYER   1   ROW     2   COL    12   RATE    -27.1293    
 BOUNDARY     28   LAYER   1   ROW     2   COL    13   RATE    -1.77447    
 BOUNDARY     29   LAYER   1   ROW     2   COL    14   RATE     0.00000    
 BOUNDARY     30   LAYER   1   ROW     2   COL    15   RATE     0.00000    
 BOUNDARY     31   LAYER   1   ROW     3   COL     1   RATE     0.00000    
 BOUNDARY     32   LAYER   1   ROW     3   COL     2   RATE     0.00000    
 BOUNDARY     33   LAYER   1   ROW     3   COL     3   RATE    -31.2942    
 BOUNDARY     34   LAYER   1   ROW     3   COL     4   RATE    -115.937    
 BOUNDARY     35   LAYER   1   ROW     3   COL     5   RATE    -115.937    
 BOUNDARY     36   LAYER   1   ROW     3   COL     6   RATE    -115.937    
 BOUNDARY     37   LAYER   1   ROW     3   COL     7   RATE    -115.937    
 BOUNDARY     38   LAYER   1   ROW     3   COL     8   RATE    -115.937    
 BOUNDARY     39   LAYER   1   ROW     3   COL     9   RATE    -115.937    
 BOUNDARY     40   LAYER   1   ROW     3   COL    10   RATE    -115.937    
 BOUNDARY     41   LAYER   1   ROW     3   COL    11   RATE    -115.937    
 BOUNDARY     42   LAYER   1   ROW     3   COL    12   RATE    -30.5341    
 BOUNDARY     43   LAYER   1   ROW     3   COL    13   RATE    -3.85552    
 BOUNDARY     44   LAYER   1   ROW     3   COL    14   RATE     0.00000    
 BOUNDARY     45   LAYER   1   ROW     3   COL    15   RATE     0.00000    
 BOUNDARY     46   LAYER   1   ROW     4   COL     1   RATE     0.00000    
 BOUNDARY     47   LAYER   1   ROW     4   COL     2   RATE    -5.04247    
 BOUNDARY     48   LAYER   1   ROW     4   COL     3   RATE    -40.2085    
 BOUNDARY     49   LAYER   1   ROW     4   COL     4   RATE    -115.937    
 BOUNDARY     50   LAYER   1   ROW     4   COL     5   RATE    -115.937    
 BOUNDARY     51   LAYER   1   ROW     4   COL     6   RATE    -115.937    
 BOUNDARY     52   LAYER   1   ROW     4   COL     7   RATE    -115.937    
 BOUNDARY     53   LAYER   1   ROW     4   COL     8   RATE    -115.937    
 BOUNDARY     54   LAYER   1   ROW     4   COL     9   RATE    -115.937    
 BOUNDARY     55   LAYER   1   ROW     4   COL    10   RATE    -115.937    
 BOUNDARY     56   LAYER   1   ROW     4   COL    11   RATE    -115.937    
 BOUNDARY     57   LAYER   1   ROW     4   COL    12   RATE    -33.7576    
 BOUNDARY     58   LAYER   1   ROW     4   COL    13   RATE    -5.53431    
 BOUNDARY     59   LAYER   1   ROW     4   COL    14   RATE     0.00000    
 BOUNDARY     60   LAYER   1   ROW     4   COL    15   RATE     0.00000    
 BOUNDARY     61   LAYER   1   ROW     5   COL     1   RATE     0.00000    
 BOUNDARY     62   LAYER   1   ROW     5   COL     2   RATE    -8.51164    
 BOUNDARY     63   LAYER   1   ROW     5   COL     3   RATE    -64.1160    
 BOUNDARY     64   LAYER   1   ROW     5   COL     4   RATE    -115.937    
 BOUNDARY     65   LAYER   1   ROW     5   COL     5   RATE    -115.937    
 BOUNDARY     66   LAYER   1   ROW     5   COL     6   RATE    -115.937    
 BOUNDARY     67   LAYER   1   ROW     5   COL     7   RATE    -115.937    
 BOUNDARY     68   LAYER   1   ROW     5   COL     8   RATE    -115.937    
 BOUNDARY     69   LAYER   1   ROW     5   COL     9   RATE    -115.937    
 BOUNDARY     70   LAYER   1   ROW     5   COL    10   RATE    -115.937    
 BOUNDARY     71   LAYER   1   ROW     5   COL    11   RATE    -115.937    
 BOUNDARY     72   LAYER   1   ROW     5   COL    12   RATE    -40.9552    
 BOUNDARY     73   LAYER   1   ROW     5   COL    13   RATE    -6.55167    
 BOUNDARY     74   LAYER   1   ROW     5   COL    14   RATE     0.00000    
 BOUNDARY     75   LAYER   1   ROW     5   COL    15   RATE     0.00000    
 BOUNDARY     76   LAYER   1   ROW     6   COL     1   RATE     0.00000    
 BOUNDARY     77   LAYER   1   ROW     6   COL     2   RATE    -6.81829    
 BOUNDARY     78   LAYER   1   ROW     6   COL     3   RATE    -68.3930    
 BOUNDARY     79   LAYER   1   ROW     6   COL     4   RATE    -115.937    
 BOUNDARY     80   LAYER   1   ROW     6   COL     5   RATE    -115.937    
 BOUNDARY     81   LAYER   1   ROW     6   COL     6   RATE    -115.937    
 BOUNDARY     82   LAYER   1   ROW     6   COL     7   RATE    -115.937    
 BOUNDARY     83   LAYER   1   ROW     6   COL     8   RATE    -115.937    
 BOUNDARY     84   LAYER   1   ROW     6   COL     9   RATE    -115.937    
 BOUNDARY     85   LAYER   1   ROW     6   COL    10   RATE    -115.937    
 BOUNDARY     86   LAYER   1   ROW     6   COL    11   RATE    -115.937    
 BOUNDARY     87   LAYER   1   ROW     6   COL    12   RATE    -44.7964    
 BOUNDARY     88   LAYER   1   ROW     6   COL    13   RATE    -6.49265    
 BOUNDARY     89   LAYER   1   ROW     6   COL    14   RATE     0.00000    
 BOUNDARY     90   LAYER   1   ROW     6   COL    15   RATE     0.00000    
 BOUNDARY     91   LAYER   1   ROW     7   COL     1   RATE     0.00000    
 BOUNDARY     92   LAYER   1   ROW     7   COL     2   RATE    -2.66875    
 BOUNDARY     93   LAYER   1   ROW     7   COL     3   RATE    -76.2291    
 BOUNDARY     94   LAYER   1   ROW     7   COL     4   RATE    -115.937    
 BOUNDARY     95   LAYER   1   ROW     7   COL     5   RATE    -115.937    
 BOUNDARY     96   LAYER   1   ROW     7   COL     6   RATE    -115.937    
 BOUNDARY     97   LAYER   1   ROW     7   COL     7   RATE    -115.937    
 BOUNDARY     98   LAYER   1   ROW     7   COL     8   RATE    -115.937    
 BOUNDARY     99   LAYER   1   ROW     7   COL     9   RATE    -115.937    
 BOUNDARY    100   LAYER   1   ROW     7   COL    10   RATE    -115.937    
 BOUNDARY    101   LAYER   1   ROW     7   COL    11   RATE    -115.937    
 BOUNDARY    102   LAYER   1   ROW     7   COL    12   RATE    -43.9667    
 BOUNDARY    103   LAYER   1   ROW     7   COL    13   RATE    -5.66776    
 BOUNDARY    104   LAYER   1   ROW     7   COL    14   RATE     0.00000    
 BOUNDARY    105   LAYER   1   ROW     7   COL    15   RATE     0.00000    
 BOUNDARY    106   LAYER   1   ROW     8   COL     1   RATE     0.00000    
 BOUNDARY    107   LAYER   1   ROW     8   COL     2   RATE    -18.3948    
 BOUNDARY    108   LAYER   1   ROW     8   COL     3   RATE    -115.937    
 BOUNDARY    109   LAYER   1   ROW     8   COL     4   RATE    -115.937    
 BOUNDARY    110   LAYER   1   ROW     8   COL     5   RATE    -115.937    
 BOUNDARY    111   LAYER   1   ROW     8   COL     6   RATE    -115.937    
 BOUNDARY    112   LAYER   1   ROW     8   COL     7   RATE    -115.937    
 BOUNDARY    113   LAYER   1   ROW     8   COL     8   RATE    -115.937    
 BOUNDARY    114   LAYER   1   ROW     8   COL     9   RATE    -115.937    
 BOUNDARY    115   LAYER   1   ROW     8   COL    10   RATE    -115.937    
 BOUNDARY    116   LAYER   1   ROW     8   COL    11   RATE    -115.937    
 BOUNDARY    117   LAYER   1   ROW     8   COL    12   RATE    -46.5553    
 BOUNDARY    118   LAYER   1   ROW     8   COL    13   RATE    -5.71673    
 BOUNDARY    119   LAYER   1   ROW     8   COL    14   RATE     0.00000    
 BOUNDARY    120   LAYER   1   ROW     8   COL    15   RATE     0.00000    
 BOUNDARY    121   LAYER   1   ROW     9   COL     1   RATE    -27.2369    
 BOUNDARY    122   LAYER   1   ROW     9   COL     2   RATE    -98.7411    
 BOUNDARY    123   LAYER   1   ROW     9   COL     3   RATE    -115.937    
 BOUNDARY    124   LAYER   1   ROW     9   COL     4   RATE    -115.937    
 BOUNDARY    125   LAYER   1   ROW     9   COL     5   RATE    -115.937    
 BOUNDARY    126   LAYER   1   ROW     9   COL     6   RATE    -115.937    
 BOUNDARY    127   LAYER   1   ROW     9   COL     7   RATE    -115.937    
 BOUNDARY    128   LAYER   1   ROW     9   COL     8   RATE    -115.937    
 BOUNDARY    129   LAYER   1   ROW     9   COL     9   RATE    -115.937    
 BOUNDARY    130   LAYER   1   ROW     9   COL    10   RATE    -115.937    
 BOUNDARY    131   LAYER   1   ROW     9   COL    11   RATE    -115.937    
 BOUNDARY    132   LAYER   1   ROW     9   COL    12   RATE    -53.4266    
 BOUNDARY    133   LAYER   1   ROW     9   COL    13   RATE    -6.72490    
 BOUNDARY    134   LAYER   1   ROW     9   COL    14   RATE     0.00000    
 BOUNDARY    135   LAYER   1   ROW     9   COL    15   RATE     0.00000    
 BOUNDARY    136   LAYER   1   ROW    10   COL     1   RATE    -108.130    
 BOUNDARY    137   LAYER   1   ROW    10   COL     2   RATE    -115.937    
 BOUNDARY    138   LAYER   1   ROW    10   COL     3   RATE    -115.937    
 BOUNDARY    139   LAYER   1   ROW    10   COL     4   RATE    -115.937    
 BOUNDARY    140   LAYER   1   ROW    10   COL     5   RATE    -115.937    
 BOUNDARY    141   LAYER   1   ROW    10   COL     6   RATE    -115.937    
 BOUNDARY    142   LAYER   1   ROW    10   COL     7   RATE    -115.937    
 BOUNDARY    143   LAYER   1   ROW    10   COL     8   RATE    -115.937    
 BOUNDARY    144   LAYER   1   ROW    10   COL     9   RATE    -115.937    
 BOUNDARY    145   LAYER   1   ROW    10   COL    10   RATE    -115.937    
 BOUNDARY    146   LAYER   1   ROW    10   COL    11   RATE    -115.937    
 BOUNDARY    147   LAYER   1   ROW    10   COL    12   RATE    -58.3410    
 BOUNDARY    148   LAYER   1   ROW    10   COL    13   RATE    -7.36715    
 BOUNDARY    149   LAYER   1   ROW    10   COL    14   RATE     0.00000    
 BOUNDARY    150   LAYER   1   ROW    10   COL    15   RATE     0.00000    

 HEAD WILL BE SAVED ON UNIT 1017 AT END OF TIME STEP    5, STRESS PERIOD    6
RIV   no.    1 value from time series:   101.00     for time:  126.0     to  127.0    
RIV   no.    2 value from time series:   101.00     for time:  126.0     to  127.0    
RIV   no.    3 value from time series:   111.50     for time:  126.0     to  127.0    
RIV   no.    4 value from time series:   111.50     for time:  126.0     to  127.0    
RIV   no.    5 value from time series:   115.10     for time:  126.0     to  127.0    
RIV   no.    6 value from time series:   115.10     for time:  126.0     to  127.0    
RIV   no.    7 value from time series:   104.00     for time:  126.0     to  127.0    
RIV   no.    8 value from time series:   104.00     for time:  126.0     to  127.0    
RIV   no.    9 value from time series:   113.50     for time:  126.0     to  127.0    
RIV   no.   10 value from time series:   113.50     for time:  126.0     to  127.0    
RIV   no.    1 value from time series:   101.00     for time:  126.0     to  127.0    
RIV   no.    2 value from time series:   101.00     for time:  126.0     to  127.0    
RIV   no.    3 value from time series:   111.50     for time:  126.0     to  127.0    
RIV   no.    4 value from time series:   111.50     for time:  126.0     to  127.0    
RIV   no.    5 value from time series:   115.10     for time:  126.0     to  127.0    
RIV   no.    6 value from time series:   115.10     for time:  126.0     to  127.0    
RIV   no.    7 value from time series:   104.00     for time:  126.0     to  127.0    
RIV   no.    8 value from time series:   104.00     for time:  126.0     to  127.0    
RIV   no.    9 value from time series:   113.50     for time:  126.0     to  127.0    
RIV   no.   10 value from time series:   113.50     for time:  126.0     to  127.0    

 OUTPUT CONTROL FOR STRESS PERIOD    6   TIME STEP    6
    SAVE BUDGET
    SAVE HEAD
    SAVE HEAD FOR ALL LAYERS
 UBDSV1 SAVING          STORAGE ON UNIT   1016 AT TIME STEP      6, STRESS PERIOD      6
 UBDSV1 SAVING FLOW RIGHT FACE  ON UNIT   1016 AT TIME STEP      6, STRESS PERIOD      6
 UBDSV1 SAVING FLOW FRONT FACE  ON UNIT   1016 AT TIME STEP      6, STRESS PERIOD      6
 UBDSV1 SAVING FLOW LOWER FACE  ON UNIT   1016 AT TIME STEP      6, STRESS PERIOD      6
 UBDSV4 SAVING WELLS NEAR RIVER ON UNIT   1016 AT TIME STEP      6, STRESS PERIOD      6
 UBDSV4 SAVING RIVER            ON UNIT   1016 AT TIME STEP      6, STRESS PERIOD      6

 RIVER              PERIOD  6   STEP  6
 BOUNDARY      1   LAYER   1   ROW     1   COL    15   RATE    -5014.59    
 BOUNDARY      2   LAYER   1   ROW     2   COL    15   RATE    -6141.46      RIV2
 BOUNDARY      3   LAYER   1   ROW     3   COL    15   RATE    -2406.56      RIV3
 BOUNDARY      4   LAYER   1   ROW     4   COL    15   RATE    -3871.60    
 BOUNDARY      5   LAYER   1   ROW     5   COL    15   RATE    -2507.88    
 BOUNDARY      6   LAYER   1   ROW     6   COL    15   RATE    -1854.64    
 BOUNDARY      7   LAYER   1   ROW     7   COL    15   RATE    -6341.30      RIVX
 BOUNDARY      8   LAYER   1   ROW     8   COL    15   RATE    -6191.81      RIVX
 BOUNDARY      9   LAYER   1   ROW     9   COL    15   RATE    -2401.27      RIVX
 BOUNDARY     10   LAYER   1   ROW    10   COL    15   RATE    -3308.78    

 GHB LAKES          PERIOD  6   STEP  6
 BOUNDARY      1   LAYER   1   ROW     3   COL     1   RATE    -14973.8    
 BOUNDARY      2   LAYER   1   ROW     7   COL     1   RATE    -2243.28      GHB2_UPPER
 BOUNDARY      3   LAYER   1   ROW     7   COL     1   RATE    -13379.3      GHB2_LOWER
 UBDSV4 SAVING RECHARGE         ON UNIT   1016 AT TIME STEP      6, STRESS PERIOD      6

 RECHARGE           PERIOD  6   STEP  6
 BOUNDARY      1   LAYER   1   ROW     1   COL     1   RATE     835.833    
 BOUNDARY      2   LAYER   1   ROW     1   COL     2   RATE     835.833    
 BOUNDARY      3   LAYER   1   ROW     1   COL     3   RATE     835.833    
 BOUNDARY      4   LAYER   1   ROW     1   COL     4   RATE     835.833    
 BOUNDARY      5   LAYER   1   ROW     1   COL     5   RATE     835.833    
 BOUNDARY      6   LAYER   1   ROW     1   COL     6   RATE     835.833    
 BOUNDARY      7   LAYER   1   ROW     1   COL     7   RATE     835.833    
 BOUNDARY      8   LAYER   1   ROW     1   COL     8   RATE     835.833    
 BOUNDARY      9   LAYER   1   ROW     1   COL     9   RATE     835.833    
 BOUNDARY     10   LAYER   1   ROW     1   COL    10   RATE     835.833    
 BOUNDARY     11   LAYER   1   ROW     1   COL    11   RATE     835.833    
 BOUNDARY     12   LAYER   1   ROW     1   COL    12   RATE     835.833    
 BOUNDARY     13   LAYER   1   ROW     1   COL    13   RATE     835.833    
 BOUNDARY     14   LAYER   1   ROW     1   COL    14   RATE     835.833    
 BOUNDARY     15   LAYER   1   ROW     1   COL    15   RATE     835.833    
 BOUNDARY     16   LAYER   1   ROW     2   COL     1   RATE     835.833    
 BOUNDARY     17   LAYER   1   ROW     2   COL     2   RATE     835.833    
 BOUNDARY     18   LAYER   1   ROW     2   COL     3   RATE     835.833    
 BOUNDARY     19   LAYER   1   ROW     2   COL     4   RATE     835.833    
 BOUNDARY     20   LAYER   1   ROW     2   COL     5   RATE     835.833    
 BOUNDARY     21   LAYER   1   ROW     2   COL     6   RATE     835.833    
 BOUNDARY     22   LAYER   1   ROW     2   COL     7   RATE     835.833    
 BOUNDARY     23   LAYER   1   ROW     2   COL     8   RATE     835.833    
 BOUNDARY     24   LAYER   1   ROW     2   COL     9   RATE     835.833    
 BOUNDARY     25   LAYER   1   ROW     2   COL    10   RATE     835.833    
 BOUNDARY     26   LAYER   1   ROW     2   COL    11   RATE     835.833    
 BOUNDARY     27   LAYER   1   ROW     2   COL    12   RATE     835.833    
 BOUNDARY     28   LAYER   1   ROW     2   COL    13   RATE     835.833    
 BOUNDARY     29   LAYER   1   ROW     2   COL    14   RATE     835.833    
 BOUNDARY     30   LAYER   1   ROW     2   COL    15   RATE     835.833    
 BOUNDARY     31   LAYER   1   ROW     3   COL     1   RATE     835.833    
 BOUNDARY     32   LAYER   1   ROW     3   COL     2   RATE     835.833    
 BOUNDARY     33   LAYER   1   ROW     3   COL     3   RATE     835.833    
 BOUNDARY     34   LAYER   1   ROW     3   COL     4   RATE     835.833    
 BOUNDARY     35   LAYER   1   ROW     3   COL     5   RATE     835.833    
 BOUNDARY     36   LAYER   1   ROW     3   COL     6   RATE     835.833    
 BOUNDARY     37   LAYER   1   ROW     3   COL     7   RATE     835.833    
 BOUNDARY     38   LAYER   1   ROW     3   COL     8   RATE     835.833    
 BOUNDARY     39   LAYER   1   ROW     3   COL     9   RATE     835.833    
 BOUNDARY     40   LAYER   1   ROW     3   COL    10   RATE     835.833    
 BOUNDARY     41   LAYER   1   ROW     3   COL    11   RATE     835.833    
 BOUNDARY     42   LAYER   1   ROW     3   COL    12   RATE     835.833    
 BOUNDARY     43   LAYER   1   ROW     3   COL    13   RATE     835.833    
 BOUNDARY     44   LAYER   1   ROW     3   COL    14   RATE     835.833    
 BOUNDARY     45   LAYER   1   ROW     3   COL    15   RATE     835.833    
 BOUNDARY     46   LAYER   1   ROW     4   COL     1   RATE     835.833    
 BOUNDARY     47   LAYER   1   ROW     4   COL     2   RATE     835.833    
 BOUNDARY     48   LAYER   1   ROW     4   COL     3   RATE     835.833    
 BOUNDARY     49   LAYER   1   ROW     4   COL     4   RATE     835.833    
 BOUNDARY     50   LAYER   1   ROW     4   COL     5   RATE     835.833    
 BOUNDARY     51   LAYER   1   ROW     4   COL     6   RATE     835.833    
 BOUNDARY     52   LAYER   1   ROW     4   COL     7   RATE     835.833    
 BOUNDARY     53   LAYER   1   ROW     4   COL     8   RATE     835.833    
 BOUNDARY     54   LAYER   1   ROW     4   COL     9   RATE     835.833    
 BOUNDARY     55   LAYER   1   ROW     4   COL    10   RATE     835.833    
 BOUNDARY     56   LAYER   1   ROW     4   COL    11   RATE     835.833    
 BOUNDARY     57   LAYER   1   ROW     4   COL    12   RATE     835.833    
 BOUNDARY     58   LAYER   1   ROW     4   COL    13   RATE     835.833    
 BOUNDARY     59   LAYER   1   ROW     4   COL    14   RATE     835.833    
 BOUNDARY     60   LAYER   1   ROW     4   COL    15   RATE     835.833    
 BOUNDARY     61   LAYER   1   ROW     5   COL     1   RATE     835.833    
 BOUNDARY     62   LAYER   1   ROW     5   COL     2   RATE     835.833    
 BOUNDARY     63   LAYER   1   ROW     5   COL     3   RATE     835.833    
 BOUNDARY     64   LAYER   1   ROW     5   COL     4   RATE     835.833    
 BOUNDARY     65   LAYER   1   ROW     5   COL     5   RATE     835.833    
 BOUNDARY     66   LAYER   1   ROW     5   COL     6   RATE     835.833    
 BOUNDARY     67   LAYER   1   ROW     5   COL     7   RATE     835.833    
 BOUNDARY     68   LAYER   1   ROW     5   COL     8   RATE     835.833    
 BOUNDARY     69   LAYER   1   ROW     5   COL     9   RATE     835.833    
 BOUNDARY     70   LAYER   1   ROW     5   COL    10   RATE     835.833    
 BOUNDARY     71   LAYER   1   ROW     5   COL    11   RATE     835.833    
 BOUNDARY     72   LAYER   1   ROW     5   COL    12   RATE     835.833    
 BOUNDARY     73   LAYER   1   ROW     5   COL    13   RATE     835.833    
 BOUNDARY     74   LAYER   1   ROW     5   COL    14   RATE     835.833    
 BOUNDARY     75   LAYER   1   ROW     5   COL    15   RATE     835.833    
 BOUNDARY     76   LAYER   1   ROW     6   COL     1   RATE     835.833    
 BOUNDARY     77   LAYER   1   ROW     6   COL     2   RATE     835.833    
 BOUNDARY     78   LAYER   1   ROW     6   COL     3   RATE     835.833    
 BOUNDARY     79   LAYER   1   ROW     6   COL     4   RATE     835.833    
 BOUNDARY     80   LAYER   1   ROW     6   COL     5   RATE     835.833    
 BOUNDARY     81   LAYER   1   ROW     6   COL     6   RATE     835.833    
 BOUNDARY     82   LAYER   1   ROW     6   COL     7   RATE     835.833    
 BOUNDARY     83   LAYER   1   ROW     6   COL     8   RATE     835.833    
 BOUNDARY     84   LAYER   1   ROW     6   COL     9   RATE     835.833    
 BOUNDARY     85   LAYER   1   ROW     6   COL    10   RATE     835.833    
 BOUNDARY     86   LAYER   1   ROW     6   COL    11   RATE     835.833    
 BOUNDARY     87   LAYER   1   ROW     6   COL    12   RATE     835.833    
 BOUNDARY     88   LAYER   1   ROW     6   COL    13   RATE     835.833    
 BOUNDARY     89   LAYER   1   ROW     6   COL    14   RATE     835.833    
 BOUNDARY     90   LAYER   1   ROW     6   COL    15   RATE     835.833    
 BOUNDARY     91   LAYER   1   ROW     7   COL     1   RATE     835.833    
 BOUNDARY     92   LAYER   1   ROW     7   COL     2   RATE     835.833    
 BOUNDARY     93   LAYER   1   ROW     7   COL     3   RATE     835.833    
 BOUNDARY     94   LAYER   1   ROW     7   COL     4   RATE     835.833    
 BOUNDARY     95   LAYER   1   ROW     7   COL     5   RATE     835.833    
 BOUNDARY     96   LAYER   1   ROW     7   COL     6   RATE     835.833    
 BOUNDARY     97   LAYER   1   ROW     7   COL     7   RATE     835.833    
 BOUNDARY     98   LAYER   1   ROW     7   COL     8   RATE     835.833    
 BOUNDARY     99   LAYER   1   ROW     7   COL     9   RATE     835.833    
 BOUNDARY    100   LAYER   1   ROW     7   COL    10   RATE     835.833    
 BOUNDARY    101   LAYER   1   ROW     7   COL    11   RATE     835.833    
 BOUNDARY    102   LAYER   1   ROW     7   COL    12   RATE     835.833    
 BOUNDARY    103   LAYER   1   ROW     7   COL    13   RATE     835.833    
 BOUNDARY    104   LAYER   1   ROW     7   COL    14   RATE     835.833    
 BOUNDARY    105   LAYER   1   ROW     7   COL    15   RATE     835.833    
 BOUNDARY    106   LAYER   1   ROW     8   COL     1   RATE     835.833    
 BOUNDARY    107   LAYER   1   ROW     8   COL     2   RATE     835.833    
 BOUNDARY    108   LAYER   1   ROW     8   COL     3   RATE     835.833    
 BOUNDARY    109   LAYER   1   ROW     8   COL     4   RATE     835.833    
 BOUNDARY    110   LAYER   1   ROW     8   COL     5   RATE     835.833    
 BOUNDARY    111   LAYER   1   ROW     8   COL     6   RATE     835.833    
 BOUNDARY    112   LAYER   1   ROW     8   COL     7   RATE     835.833    
 BOUNDARY    113   LAYER   1   ROW     8   COL     8   RATE     835.833    
 BOUNDARY    114   LAYER   1   ROW     8   COL     9   RATE     835.833    
 BOUNDARY    115   LAYER   1   ROW     8   COL    10   RATE     835.833    
 BOUNDARY    116   LAYER   1   ROW     8   COL    11   RATE     835.833    
 BOUNDARY    117   LAYER   1   ROW     8   COL    12   RATE     835.833    
 BOUNDARY    118   LAYER   1   ROW     8   COL    13   RATE     835.833    
 BOUNDARY    119   LAYER   1   ROW     8   COL    14   RATE     835.833    
 BOUNDARY    120   LAYER   1   ROW     8   COL    15   RATE     835.833    
 BOUNDARY    121   LAYER   1   ROW     9   COL     1   RATE     835.833    
 BOUNDARY    122   LAYER   1   ROW     9   COL     2   RATE     835.833    
 BOUNDARY    123   LAYER   1   ROW     9   COL     3   RATE     835.833    
 BOUNDARY    124   LAYER   1   ROW     9   COL     4   RATE     835.833    
 BOUNDARY    125   LAYER   1   ROW     9   COL     5   RATE     835.833    
 BOUNDARY    126   LAYER   1   ROW     9   COL     6   RATE     835.833    
 BOUNDARY    127   LAYER   1   ROW     9   COL     7   RATE     835.833    
 BOUNDARY    128   LAYER   1   ROW     9   COL     8   RATE     835.833    
 BOUNDARY    129   LAYER   1   ROW     9   COL     9   RATE     835.833    
 BOUNDARY    130   LAYER   1   ROW     9   COL    10   RATE     835.833    
 BOUNDARY    131   LAYER   1   ROW     9   COL    11   RATE     835.833    
 BOUNDARY    132   LAYER   1   ROW     9   COL    12   RATE     835.833    
 BOUNDARY    133   LAYER   1   ROW     9   COL    13   RATE     835.833    
 BOUNDARY    134   LAYER   1   ROW     9   COL    14   RATE     835.833    
 BOUNDARY    135   LAYER   1   ROW     9   COL    15   RATE     835.833    
 BOUNDARY    136   LAYER   1   ROW    10   COL     1   RATE     835.833    
 BOUNDARY    137   LAYER   1   ROW    10   COL     2   RATE     835.833    
 BOUNDARY    138   LAYER   1   ROW    10   COL     3   RATE     835.833    
 BOUNDARY    139   LAYER   1   ROW    10   COL     4   RATE     835.833    
 BOUNDARY    140   LAYER   1   ROW    10   COL     5   RATE     835.833    
 BOUNDARY    141   LAYER   1   ROW    10   COL     6   RATE     835.833    
 BOUNDARY    142   LAYER   1   ROW    10   COL     7   RATE     835.833    
 BOUNDARY    143   LAYER   1   ROW    10   COL     8   RATE     835.833    
 BOUNDARY    144   LAYER   1   ROW    10   COL     9   RATE     835.833    
 BOUNDARY    145   LAYER   1   ROW    10   COL    10   RATE     835.833    
 BOUNDARY    146   LAYER   1   ROW    10   COL    11   RATE     835.833    
 BOUNDARY    147   LAYER   1   ROW    10   COL    12   RATE     835.833    
 BOUNDARY    148   LAYER   1   ROW    10   COL    13   RATE     835.833    
 BOUNDARY    149   LAYER   1   ROW    10   COL    14   RATE     835.833    
 BOUNDARY    150   LAYER   1   ROW    10   COL    15   RATE     835.833    
 UBDSV4 SAVING ET SEGS          ON UNIT   1016 AT TIME STEP      6, STRESS PERIOD      6

 ET SEGS            PERIOD  6   STEP  6
 BOUNDARY      1   LAYER   1   ROW     1   COL     1   RATE    -4.14596    
 BOUNDARY      2   LAYER   1   ROW     1   COL     2   RATE    -13.3340    
 BOUNDARY      3   LAYER   1   ROW     1   COL     3   RATE    -86.3122    
 BOUNDARY      4   LAYER   1   ROW     1   COL     4   RATE    -116.562    
 BOUNDARY      5   LAYER   1   ROW     1   COL     5   RATE    -116.562    
 BOUNDARY      6   LAYER   1   ROW     1   COL     6   RATE    -116.562    
 BOUNDARY      7   LAYER   1   ROW     1   COL     7   RATE    -116.562    
 BOUNDARY      8   LAYER   1   ROW     1   COL     8   RATE    -116.562    
 BOUNDARY      9   LAYER   1   ROW     1   COL     9   RATE    -116.562    
 BOUNDARY     10   LAYER   1   ROW     1   COL    10   RATE    -116.562    
 BOUNDARY     11   LAYER   1   ROW     1   COL    11   RATE    -116.562    
 BOUNDARY     12   LAYER   1   ROW     1   COL    12   RATE    -25.3419    
 BOUNDARY     13   LAYER   1   ROW     1   COL    13   RATE   -0.663652    
 BOUNDARY     14   LAYER   1   ROW     1   COL    14   RATE     0.00000    
 BOUNDARY     15   LAYER   1   ROW     1   COL    15   RATE     0.00000    
 BOUNDARY     16   LAYER   1   ROW     2   COL     1   RATE     0.00000    
 BOUNDARY     17   LAYER   1   ROW     2   COL     2   RATE    -6.86073    
 BOUNDARY     18   LAYER   1   ROW     2   COL     3   RATE    -53.6119    
 BOUNDARY     19   LAYER   1   ROW     2   COL     4   RATE    -116.562    
 BOUNDARY     20   LAYER   1   ROW     2   COL     5   RATE    -116.562    
 BOUNDARY     21   LAYER   1   ROW     2   COL     6   RATE    -116.562    
 BOUNDARY     22   LAYER   1   ROW     2   COL     7   RATE    -116.562    
 BOUNDARY     23   LAYER   1   ROW     2   COL     8   RATE    -116.562    
 BOUNDARY     24   LAYER   1   ROW     2   COL     9   RATE    -116.562    
 BOUNDARY     25   LAYER   1   ROW     2   COL    10   RATE    -116.562    
 BOUNDARY     26   LAYER   1   ROW     2   COL    11   RATE    -116.562    
 BOUNDARY     27   LAYER   1   ROW     2   COL    12   RATE    -27.3744    
 BOUNDARY     28   LAYER   1   ROW     2   COL    13   RATE    -1.81300    
 BOUNDARY     29   LAYER   1   ROW     2   COL    14   RATE     0.00000    
 BOUNDARY     30   LAYER   1   ROW     2   COL    15   RATE     0.00000    
 BOUNDARY     31   LAYER   1   ROW     3   COL     1   RATE     0.00000    
 BOUNDARY     32   LAYER   1   ROW     3   COL     2   RATE     0.00000    
 BOUNDARY     33   LAYER   1   ROW     3   COL     3   RATE    -31.5589    
 BOUNDARY     34   LAYER   1   ROW     3   COL     4   RATE    -116.562    
 BOUNDARY     35   LAYER   1   ROW     3   COL     5   RATE    -116.562    
 BOUNDARY     36   LAYER   1   ROW     3   COL     6   RATE    -116.562    
 BOUNDARY     37   LAYER   1   ROW     3   COL     7   RATE    -116.562    
 BOUNDARY     38   LAYER   1   ROW     3   COL     8   RATE    -116.562    
 BOUNDARY     39   LAYER   1   ROW     3   COL     9   RATE    -116.562    
 BOUNDARY     40   LAYER   1   ROW     3   COL    10   RATE    -116.562    
 BOUNDARY     41   LAYER   1   ROW     3   COL    11   RATE    -116.562    
 BOUNDARY     42   LAYER   1   ROW     3   COL    12   RATE    -30.7974    
 BOUNDARY     43   LAYER   1   ROW     3   COL    13   RATE    -3.90522    
 BOUNDARY     44   LAYER   1   ROW     3   COL    14   RATE     0.00000    
 BOUNDARY     45   LAYER   1   ROW     3   COL    15   RATE     0.00000    
 BOUNDARY     46   LAYER   1   ROW     4   COL     1   RATE     0.00000    
 BOUNDARY     47   LAYER   1   ROW     4   COL     2   RATE    -5.09814    
 BOUNDARY     48   LAYER   1   ROW     4   COL     3   RATE    -40.9264    
 BOUNDARY     49   LAYER   1   ROW     4   COL     4   RATE    -116.562    
 BOUNDARY     50   LAYER   1   ROW     4   COL     5   RATE    -116.562    
 BOUNDARY     51   LAYER   1   ROW     4   COL     6   RATE    -116.562    
 BOUNDARY     52   LAYER   1   ROW     4   COL     7   RATE    -116.562    
 BOUNDARY     53   LAYER   1   ROW     4   COL     8   RATE    -116.562    
 BOUNDARY     54   LAYER   1   ROW     4   COL     9   RATE    -116.562    
 BOUNDARY     55   LAYER   1   ROW     4   COL    10   RATE    -116.562    
 BOUNDARY     56   LAYER   1   ROW     4   COL    11   RATE    -116.562    
 BOUNDARY     57   LAYER   1   ROW     4   COL    12   RATE    -34.0378    
 BOUNDARY     58   LAYER   1   ROW     4   COL    13   RATE    -5.59291    
 BOUNDARY     59   LAYER   1   ROW     4   COL    14   RATE     0.00000    
 BOUNDARY     60   LAYER   1   ROW     4   COL    15   RATE     0.00000    
 BOUNDARY     61   LAYER   1   ROW     5   COL     1   RATE     0.00000    
 BOUNDARY     62   LAYER   1   ROW     5   COL     2   RATE    -8.58639    
 BOUNDARY     63   LAYER   1   ROW     5   COL     3   RATE    -64.9552    
 BOUNDARY     64   LAYER   1   ROW     5   COL     4   RATE    -116.562    
 BOUNDARY     65   LAYER   1   ROW     5   COL     5   RATE    -116.562    
 BOUNDARY     66   LAYER   1   ROW     5   COL     6   RATE    -116.562    
 BOUNDARY     67   LAYER   1   ROW     5   COL     7   RATE    -116.562    
 BOUNDARY     68   LAYER   1   ROW     5   COL     8   RATE    -116.562    
 BOUNDARY     69   LAYER   1   ROW     5   COL     9   RATE    -116.562    
 BOUNDARY     70   LAYER   1   ROW     5   COL    10   RATE    -116.562    
 BOUNDARY     71   LAYER   1   ROW     5   COL    11   RATE    -116.562    
 BOUNDARY     72   LAYER   1   ROW     5   COL    12   RATE    -41.6832    
 BOUNDARY     73   LAYER   1   ROW     5   COL    13   RATE    -6.61552    
 BOUNDARY     74   LAYER   1   ROW     5   COL    14   RATE     0.00000    
 BOUNDARY     75   LAYER   1   ROW     5   COL    15   RATE     0.00000    
 BOUNDARY     76   LAYER   1   ROW     6   COL     1   RATE     0.00000    
 BOUNDARY     77   LAYER   1   ROW     6   COL     2   RATE    -6.88297    
 BOUNDARY     78   LAYER   1   ROW     6   COL     3   RATE    -69.2470    
 BOUNDARY     79   LAYER   1   ROW     6   COL     4   RATE    -116.562    
 BOUNDARY     80   LAYER   1   ROW     6   COL     5   RATE    -116.562    
 BOUNDARY     81   LAYER   1   ROW     6   COL     6   RATE    -116.562    
 BOUNDARY     82   LAYER   1   ROW     6   COL     7   RATE    -116.562    
 BOUNDARY     83   LAYER   1   ROW     6   COL     8   RATE    -116.562    
 BOUNDARY     84   LAYER   1   ROW     6   COL     9   RATE    -116.562    
 BOUNDARY     85   LAYER   1   ROW     6   COL    10   RATE    -116.562    
 BOUNDARY     86   LAYER   1   ROW     6   COL    11   RATE    -116.562    
 BOUNDARY     87   LAYER   1   ROW     6   COL    12   RATE    -45.5418    
 BOUNDARY     88   LAYER   1   ROW     6   COL    13   RATE    -6.55611    
 BOUNDARY     89   LAYER   1   ROW     6   COL    14   RATE     0.00000    
 BOUNDARY     90   LAYER   1   ROW     6   COL    15   RATE     0.00000    
 BOUNDARY     91   LAYER   1   ROW     7   COL     1   RATE     0.00000    
 BOUNDARY     92   LAYER   1   ROW     7   COL     2   RATE    -2.70888    
 BOUNDARY     93   LAYER   1   ROW     7   COL     3   RATE    -77.1170    
 BOUNDARY     94   LAYER   1   ROW     7   COL     4   RATE    -116.562    
 BOUNDARY     95   LAYER   1   ROW     7   COL     5   RATE    -116.562    
 BOUNDARY     96   LAYER   1   ROW     7   COL     6   RATE    -116.562    
 BOUNDARY     97   LAYER   1   ROW     7   COL     7   RATE    -116.562    
 BOUNDARY     98   LAYER   1   ROW     7   COL     8   RATE    -116.562    
 BOUNDARY     99   LAYER   1   ROW     7   COL     9   RATE    -116.562    
 BOUNDARY    100   LAYER   1   ROW     7   COL    10   RATE    -116.562    
 BOUNDARY    101   LAYER   1   ROW     7   COL    11   RATE    -116.562    
 BOUNDARY    102   LAYER   1   ROW     7   COL    12   RATE    -44.7088    
 BOUNDARY    103   LAYER   1   ROW     7   COL    13   RATE    -5.72699    
 BOUNDARY    104   LAYER   1   ROW     7   COL    14   RATE     0.00000    
 BOUNDARY    105   LAYER   1   ROW     7   COL    15   RATE     0.00000    
 BOUNDARY    106   LAYER   1   ROW     8   COL     1   RATE     0.00000    
 BOUNDARY    107   LAYER   1   ROW     8   COL     2   RATE    -18.5858    
 BOUNDARY    108   LAYER   1   ROW     8   COL     3   RATE    -116.562    
 BOUNDARY    109   LAYER   1   ROW     8   COL     4   RATE    -116.562    
 BOUNDARY    110   LAYER   1   ROW     8   COL     5   RATE    -116.562    
 BOUNDARY    111   LAYER   1   ROW     8   COL     6   RATE    -116.562    
 BOUNDARY    112   LAYER   1   ROW     8   COL     7   RATE    -116.562    
 BOUNDARY    113   LAYER   1   ROW     8   COL     8   RATE    -116.562    
 BOUNDARY    114   LAYER   1   ROW     8   COL     9   RATE    -116.562    
 BOUNDARY    115   LAYER   1   ROW     8   COL    10   RATE    -116.562    
 BOUNDARY    116   LAYER   1   ROW     8   COL    11   RATE    -116.562    
 BOUNDARY    117   LAYER   1   ROW     8   COL    12   RATE    -47.3126    
 BOUNDARY    118   LAYER   1   ROW     8   COL    13   RATE    -5.77654    
 BOUNDARY    119   LAYER   1   ROW     8   COL    14   RATE     0.00000    
 BOUNDARY    120   LAYER   1   ROW     8   COL    15   RATE     0.00000    
 BOUNDARY    121   LAYER   1   ROW     9   COL     1   RATE    -27.4765    
 BOUNDARY    122   LAYER   1   ROW     9   COL     2   RATE    -99.7552    
 BOUNDARY    123   LAYER   1   ROW     9   COL     3   RATE    -116.562    
 BOUNDARY    124   LAYER   1   ROW     9   COL     4   RATE    -116.562    
 BOUNDARY    125   LAYER   1   ROW     9   COL     5   RATE    -116.562    
 BOUNDARY    126   LAYER   1   ROW     9   COL     6   RATE    -116.562    
 BOUNDARY    127   LAYER   1   ROW     9   COL     7   RATE    -116.562    
 BOUNDARY    128   LAYER   1   ROW     9   COL     8   RATE    -116.562    
 BOUNDARY    129   LAYER   1   ROW     9   COL     9   RATE    -116.562    
 BOUNDARY    130   LAYER   1   ROW     9   COL    10   RATE    -116.562    
 BOUNDARY    131   LAYER   1   ROW     9   COL    11   RATE    -116.562    
 BOUNDARY    132   LAYER   1   ROW     9   COL    12   RATE    -54.2215    
 BOUNDARY    133   LAYER   1   ROW     9   COL    13   RATE    -6.79044    
 BOUNDARY    134   LAYER   1   ROW     9   COL    14   RATE     0.00000    
 BOUNDARY    135   LAYER   1   ROW     9   COL    15   RATE     0.00000    
 BOUNDARY    136   LAYER   1   ROW    10   COL     1   RATE    -109.191    
 BOUNDARY    137   LAYER   1   ROW    10   COL     2   RATE    -116.562    
 BOUNDARY    138   LAYER   1   ROW    10   COL     3   RATE    -116.562    
 BOUNDARY    139   LAYER   1   ROW    10   COL     4   RATE    -116.562    
 BOUNDARY    140   LAYER   1   ROW    10   COL     5   RATE    -116.562    
 BOUNDARY    141   LAYER   1   ROW    10   COL     6   RATE    -116.562    
 BOUNDARY    142   LAYER   1   ROW    10   COL     7   RATE    -116.562    
 BOUNDARY    143   LAYER   1   ROW    10   COL     8   RATE    -116.562    
 BOUNDARY    144   LAYER   1   ROW    10   COL     9   RATE    -116.562    
 BOUNDARY    145   LAYER   1   ROW    10   COL    10   RATE    -116.562    
 BOUNDARY    146   LAYER   1   ROW    10   COL    11   RATE    -116.562    
 BOUNDARY    147   LAYER   1   ROW    10   COL    12   RATE    -59.1629    
 BOUNDARY    148   LAYER   1   ROW    10   COL    13   RATE    -7.43634    
 BOUNDARY    149   LAYER   1   ROW    10   COL    14   RATE     0.00000    
 BOUNDARY    150   LAYER   1   ROW    10   COL    15   RATE     0.00000    

 HEAD WILL BE SAVED ON UNIT 1017 AT END OF TIME STEP    6, STRESS PERIOD    6
RIV   no.    1 value from time series:   101.00     for time:  127.0     to  128.0    
RIV   no.    2 value from time series:   101.00     for time:  127.0     to  128.0    
RIV   no.    3 value from time series:   111.50     for time:  127.0     to  128.0    
RIV   no.    4 value from time series:   111.50     for time:  127.0     to  128.0    
RIV   no.    5 value from time series:   115.10     for time:  127.0     to  128.0    
RIV   no.    6 value from time series:   115.10     for time:  127.0     to  128.0    
RIV   no.    7 value from time series:   104.00     for time:  127.0     to  128.0    
RIV   no.    8 value from time series:   104.00     for time:  127.0     to  128.0    
RIV   no.    9 value from time series:   113.50     for time:  127.0     to  128.0    
RIV   no.   10 value from time series:   113.50     for time:  127.0     to  128.0    
RIV   no.    1 value from time series:   101.00     for time:  127.0     to  128.0    
RIV   no.    2 value from time series:   101.00     for time:  127.0     to  128.0    
RIV   no.    3 value from time series:   111.50     for time:  127.0     to  128.0    
RIV   no.    4 value from time series:   111.50     for time:  127.0     to  128.0    
RIV   no.    5 value from time series:   115.10     for time:  127.0     to  128.0    
RIV   no.    6 value from time series:   115.10     for time:  127.0     to  128.0    
RIV   no.    7 value from time series:   104.00     for time:  127.0     to  128.0    
RIV   no.    8 value from time series:   104.00     for time:  127.0     to  128.0    
RIV   no.    9 value from time series:   113.50     for time:  127.0     to  128.0    
RIV   no.   10 value from time series:   113.50     for time:  127.0     to  128.0    

 OUTPUT CONTROL FOR STRESS PERIOD    6   TIME STEP    7
    SAVE BUDGET
    SAVE HEAD
    SAVE HEAD FOR ALL LAYERS
 UBDSV1 SAVING          STORAGE ON UNIT   1016 AT TIME STEP      7, STRESS PERIOD      6
 UBDSV1 SAVING FLOW RIGHT FACE  ON UNIT   1016 AT TIME STEP      7, STRESS PERIOD      6
 UBDSV1 SAVING FLOW FRONT FACE  ON UNIT   1016 AT TIME STEP      7, STRESS PERIOD      6
 UBDSV1 SAVING FLOW LOWER FACE  ON UNIT   1016 AT TIME STEP      7, STRESS PERIOD      6
 UBDSV4 SAVING WELLS NEAR RIVER ON UNIT   1016 AT TIME STEP      7, STRESS PERIOD      6
 UBDSV4 SAVING RIVER            ON UNIT   1016 AT TIME STEP      7, STRESS PERIOD      6

 RIVER              PERIOD  6   STEP  7
 BOUNDARY      1   LAYER   1   ROW     1   COL    15   RATE    -5018.91    
 BOUNDARY      2   LAYER   1   ROW     2   COL    15   RATE    -6145.85      RIV2
 BOUNDARY      3   LAYER   1   ROW     3   COL    15   RATE    -2410.86      RIV3
 BOUNDARY      4   LAYER   1   ROW     4   COL    15   RATE    -3875.96    
 BOUNDARY      5   LAYER   1   ROW     5   COL    15   RATE    -2512.18    
 BOUNDARY      6   LAYER   1   ROW     6   COL    15   RATE    -1858.91    
 BOUNDARY      7   LAYER   1   ROW     7   COL    15   RATE    -6345.74      RIVX
 BOUNDARY      8   LAYER   1   ROW     8   COL    15   RATE    -6196.32      RIVX
 BOUNDARY      9   LAYER   1   ROW     9   COL    15   RATE    -2405.73      RIVX
 BOUNDARY     10   LAYER   1   ROW    10   COL    15   RATE    -3313.30    

 GHB LAKES          PERIOD  6   STEP  7
 BOUNDARY      1   LAYER   1   ROW     3   COL     1   RATE    -14982.0    
 BOUNDARY      2   LAYER   1   ROW     7   COL     1   RATE    -2249.74      GHB2_UPPER
 BOUNDARY      3   LAYER   1   ROW     7   COL     1   RATE    -13381.6      GHB2_LOWER
 UBDSV4 SAVING RECHARGE         ON UNIT   1016 AT TIME STEP      7, STRESS PERIOD      6

 RECHARGE           PERIOD  6   STEP  7
 BOUNDARY      1   LAYER   1   ROW     1   COL     1   RATE     837.500    
 BOUNDARY      2   LAYER   1   ROW     1   COL     2   RATE     837.500    
 BOUNDARY      3   LAYER   1   ROW     1   COL     3   RATE     837.500    
 BOUNDARY      4   LAYER   1   ROW     1   COL     4   RATE     837.500    
 BOUNDARY      5   LAYER   1   ROW     1   COL     5   RATE     837.500    
 BOUNDARY      6   LAYER   1   ROW     1   COL     6   RATE     837.500    
 BOUNDARY      7   LAYER   1   ROW     1   COL     7   RATE     837.500    
 BOUNDARY      8   LAYER   1   ROW     1   COL     8   RATE     837.500    
 BOUNDARY      9   LAYER   1   ROW     1   COL     9   RATE     837.500    
 BOUNDARY     10   LAYER   1   ROW     1   COL    10   RATE     837.500    
 BOUNDARY     11   LAYER   1   ROW     1   COL    11   RATE     837.500    
 BOUNDARY     12   LAYER   1   ROW     1   COL    12   RATE     837.500    
 BOUNDARY     13   LAYER   1   ROW     1   COL    13   RATE     837.500    
 BOUNDARY     14   LAYER   1   ROW     1   COL    14   RATE     837.500    
 BOUNDARY     15   LAYER   1   ROW     1   COL    15   RATE     837.500    
 BOUNDARY     16   LAYER   1   ROW     2   COL     1   RATE     837.500    
 BOUNDARY     17   LAYER   1   ROW     2   COL     2   RATE     837.500    
 BOUNDARY     18   LAYER   1   ROW     2   COL     3   RATE     837.500    
 BOUNDARY     19   LAYER   1   ROW     2   COL     4   RATE     837.500    
 BOUNDARY     20   LAYER   1   ROW     2   COL     5   RATE     837.500    
 BOUNDARY     21   LAYER   1   ROW     2   COL     6   RATE     837.500    
 BOUNDARY     22   LAYER   1   ROW     2   COL     7   RATE     837.500    
 BOUNDARY     23   LAYER   1   ROW     2   COL     8   RATE     837.500    
 BOUNDARY     24   LAYER   1   ROW     2   COL     9   RATE     837.500    
 BOUNDARY     25   LAYER   1   ROW     2   COL    10   RATE     837.500    
 BOUNDARY     26   LAYER   1   ROW     2   COL    11   RATE     837.500    
 BOUNDARY     27   LAYER   1   ROW     2   COL    12   RATE     837.500    
 BOUNDARY     28   LAYER   1   ROW     2   COL    13   RATE     837.500    
 BOUNDARY     29   LAYER   1   ROW     2   COL    14   RATE     837.500    
 BOUNDARY     30   LAYER   1   ROW     2   COL    15   RATE     837.500    
 BOUNDARY     31   LAYER   1   ROW     3   COL     1   RATE     837.500    
 BOUNDARY     32   LAYER   1   ROW     3   COL     2   RATE     837.500    
 BOUNDARY     33   LAYER   1   ROW     3   COL     3   RATE     837.500    
 BOUNDARY     34   LAYER   1   ROW     3   COL     4   RATE     837.500    
 BOUNDARY     35   LAYER   1   ROW     3   COL     5   RATE     837.500    
 BOUNDARY     36   LAYER   1   ROW     3   COL     6   RATE     837.500    
 BOUNDARY     37   LAYER   1   ROW     3   COL     7   RATE     837.500    
 BOUNDARY     38   LAYER   1   ROW     3   COL     8   RATE     837.500    
 BOUNDARY     39   LAYER   1   ROW     3   COL     9   RATE     837.500    
 BOUNDARY     40   LAYER   1   ROW     3   COL    10   RATE     837.500    
 BOUNDARY     41   LAYER   1   ROW     3   COL    11   RATE     837.500    
 BOUNDARY     42   LAYER   1   ROW     3   COL    12   RATE     837.500    
 BOUNDARY     43   LAYER   1   ROW     3   COL    13   RATE     837.500    
 BOUNDARY     44   LAYER   1   ROW     3   COL    14   RATE     837.500    
 BOUNDARY     45   LAYER   1   ROW     3   COL    15   RATE     837.500    
 BOUNDARY     46   LAYER   1   ROW     4   COL     1   RATE     837.500    
 BOUNDARY     47   LAYER   1   ROW     4   COL     2   RATE     837.500    
 BOUNDARY     48   LAYER   1   ROW     4   COL     3   RATE     837.500    
 BOUNDARY     49   LAYER   1   ROW     4   COL     4   RATE     837.500    
 BOUNDARY     50   LAYER   1   ROW     4   COL     5   RATE     837.500    
 BOUNDARY     51   LAYER   1   ROW     4   COL     6   RATE     837.500    
 BOUNDARY     52   LAYER   1   ROW     4   COL     7   RATE     837.500    
 BOUNDARY     53   LAYER   1   ROW     4   COL     8   RATE     837.500    
 BOUNDARY     54   LAYER   1   ROW     4   COL     9   RATE     837.500    
 BOUNDARY     55   LAYER   1   ROW     4   COL    10   RATE     837.500    
 BOUNDARY     56   LAYER   1   ROW     4   COL    11   RATE     837.500    
 BOUNDARY     57   LAYER   1   ROW     4   COL    12   RATE     837.500    
 BOUNDARY     58   LAYER   1   ROW     4   COL    13   RATE     837.500    
 BOUNDARY     59   LAYER   1   ROW     4   COL    14   RATE     837.500    
 BOUNDARY     60   LAYER   1   ROW     4   COL    15   RATE     837.500    
 BOUNDARY     61   LAYER   1   ROW     5   COL     1   RATE     837.500    
 BOUNDARY     62   LAYER   1   ROW     5   COL     2   RATE     837.500    
 BOUNDARY     63   LAYER   1   ROW     5   COL     3   RATE     837.500    
 BOUNDARY     64   LAYER   1   ROW     5   COL     4   RATE     837.500    
 BOUNDARY     65   LAYER   1   ROW     5   COL     5   RATE     837.500    
 BOUNDARY     66   LAYER   1   ROW     5   COL     6   RATE     837.500    
 BOUNDARY     67   LAYER   1   ROW     5   COL     7   RATE     837.500    
 BOUNDARY     68   LAYER   1   ROW     5   COL     8   RATE     837.500    
 BOUNDARY     69   LAYER   1   ROW     5   COL     9   RATE     837.500    
 BOUNDARY     70   LAYER   1   ROW     5   COL    10   RATE     837.500    
 BOUNDARY     71   LAYER   1   ROW     5   COL    11   RATE     837.500    
 BOUNDARY     72   LAYER   1   ROW     5   COL    12   RATE     837.500    
 BOUNDARY     73   LAYER   1   ROW     5   COL    13   RATE     837.500    
 BOUNDARY     74   LAYER   1   ROW     5   COL    14   RATE     837.500    
 BOUNDARY     75   LAYER   1   ROW     5   COL    15   RATE     837.500    
 BOUNDARY     76   LAYER   1   ROW     6   COL     1   RATE     837.500    
 BOUNDARY     77   LAYER   1   ROW     6   COL     2   RATE     837.500    
 BOUNDARY     78   LAYER   1   ROW     6   COL     3   RATE     837.500    
 BOUNDARY     79   LAYER   1   ROW     6   COL     4   RATE     837.500    
 BOUNDARY     80   LAYER   1   ROW     6   COL     5   RATE     837.500    
 BOUNDARY     81   LAYER   1   ROW     6   COL     6   RATE     837.500    
 BOUNDARY     82   LAYER   1   ROW     6   COL     7   RATE     837.500    
 BOUNDARY     83   LAYER   1   ROW     6   COL     8   RATE     837.500    
 BOUNDARY     84   LAYER   1   ROW     6   COL     9   RATE     837.500    
 BOUNDARY     85   LAYER   1   ROW     6   COL    10   RATE     837.500    
 BOUNDARY     86   LAYER   1   ROW     6   COL    11   RATE     837.500    
 BOUNDARY     87   LAYER   1   ROW     6   COL    12   RATE     837.500    
 BOUNDARY     88   LAYER   1   ROW     6   COL    13   RATE     837.500    
 BOUNDARY     89   LAYER   1   ROW     6   COL    14   RATE     837.500    
 BOUNDARY     90   LAYER   1   ROW     6   COL    15   RATE     837.500    
 BOUNDARY     91   LAYER   1   ROW     7   COL     1   RATE     837.500    
 BOUNDARY     92   LAYER   1   ROW     7   COL     2   RATE     837.500    
 BOUNDARY     93   LAYER   1   ROW     7   COL     3   RATE     837.500    
 BOUNDARY     94   LAYER   1   ROW     7   COL     4   RATE     837.500    
 BOUNDARY     95   LAYER   1   ROW     7   COL     5   RATE     837.500    
 BOUNDARY     96   LAYER   1   ROW     7   COL     6   RATE     837.500    
 BOUNDARY     97   LAYER   1   ROW     7   COL     7   RATE     837.500    
 BOUNDARY     98   LAYER   1   ROW     7   COL     8   RATE     837.500    
 BOUNDARY     99   LAYER   1   ROW     7   COL     9   RATE     837.500    
 BOUNDARY    100   LAYER   1   ROW     7   COL    10   RATE     837.500    
 BOUNDARY    101   LAYER   1   ROW     7   COL    11   RATE     837.500    
 BOUNDARY    102   LAYER   1   ROW     7   COL    12   RATE     837.500    
 BOUNDARY    103   LAYER   1   ROW     7   COL    13   RATE     837.500    
 BOUNDARY    104   LAYER   1   ROW     7   COL    14   RATE     837.500    
 BOUNDARY    105   LAYER   1   ROW     7   COL    15   RATE     837.500    
 BOUNDARY    106   LAYER   1   ROW     8   COL     1   RATE     837.500    
 BOUNDARY    107   LAYER   1   ROW     8   COL     2   RATE     837.500    
 BOUNDARY    108   LAYER   1   ROW     8   COL     3   RATE     837.500    
 BOUNDARY    109   LAYER   1   ROW     8   COL     4   RATE     837.500    
 BOUNDARY    110   LAYER   1   ROW     8   COL     5   RATE     837.500    
 BOUNDARY    111   LAYER   1   ROW     8   COL     6   RATE     837.500    
 BOUNDARY    112   LAYER   1   ROW     8   COL     7   RATE     837.500    
 BOUNDARY    113   LAYER   1   ROW     8   COL     8   RATE     837.500    
 BOUNDARY    114   LAYER   1   ROW     8   COL     9   RATE     837.500    
 BOUNDARY    115   LAYER   1   ROW     8   COL    10   RATE     837.500    
 BOUNDARY    116   LAYER   1   ROW     8   COL    11   RATE     837.500    
 BOUNDARY    117   LAYER   1   ROW     8   COL    12   RATE     837.500    
 BOUNDARY    118   LAYER   1   ROW     8   COL    13   RATE     837.500    
 BOUNDARY    119   LAYER   1   ROW     8   COL    14   RATE     837.500    
 BOUNDARY    120   LAYER   1   ROW     8   COL    15   RATE     837.500    
 BOUNDARY    121   LAYER   1   ROW     9   COL     1   RATE     837.500    
 BOUNDARY    122   LAYER   1   ROW     9   COL     2   RATE     837.500    
 BOUNDARY    123   LAYER   1   ROW     9   COL     3   RATE     837.500    
 BOUNDARY    124   LAYER   1   ROW     9   COL     4   RATE     837.500    
 BOUNDARY    125   LAYER   1   ROW     9   COL     5   RATE     837.500    
 BOUNDARY    126   LAYER   1   ROW     9   COL     6   RATE     837.500    
 BOUNDARY    127   LAYER   1   ROW     9   COL     7   RATE     837.500    
 BOUNDARY    128   LAYER   1   ROW     9   COL     8   RATE     837.500    
 BOUNDARY    129   LAYER   1   ROW     9   COL     9   RATE     837.500    
 BOUNDARY    130   LAYER   1   ROW     9   COL    10   RATE     837.500    
 BOUNDARY    131   LAYER   1   ROW     9   COL    11   RATE     837.500    
 BOUNDARY    132   LAYER   1   ROW     9   COL    12   RATE     837.500    
 BOUNDARY    133   LAYER   1   ROW     9   COL    13   RATE     837.500    
 BOUNDARY    134   LAYER   1   ROW     9   COL    14   RATE     837.500    
 BOUNDARY    135   LAYER   1   ROW     9   COL    15   RATE     837.500    
 BOUNDARY    136   LAYER   1   ROW    10   COL     1   RATE     837.500    
 BOUNDARY    137   LAYER   1   ROW    10   COL     2   RATE     837.500    
 BOUNDARY    138   LAYER   1   ROW    10   COL     3   RATE     837.500    
 BOUNDARY    139   LAYER   1   ROW    10   COL     4   RATE     837.500    
 BOUNDARY    140   LAYER   1   ROW    10   COL     5   RATE     837.500    
 BOUNDARY    141   LAYER   1   ROW    10   COL     6   RATE     837.500    
 BOUNDARY    142   LAYER   1   ROW    10   COL     7   RATE     837.500    
 BOUNDARY    143   LAYER   1   ROW    10   COL     8   RATE     837.500    
 BOUNDARY    144   LAYER   1   ROW    10   COL     9   RATE     837.500    
 BOUNDARY    145   LAYER   1   ROW    10   COL    10   RATE     837.500    
 BOUNDARY    146   LAYER   1   ROW    10   COL    11   RATE     837.500    
 BOUNDARY    147   LAYER   1   ROW    10   COL    12   RATE     837.500    
 BOUNDARY    148   LAYER   1   ROW    10   COL    13   RATE     837.500    
 BOUNDARY    149   LAYER   1   ROW    10   COL    14   RATE     837.500    
 BOUNDARY    150   LAYER   1   ROW    10   COL    15   RATE     837.500    
 UBDSV4 SAVING ET SEGS          ON UNIT   1016 AT TIME STEP      7, STRESS PERIOD      6

 ET SEGS            PERIOD  6   STEP  7
 BOUNDARY      1   LAYER   1   ROW     1   COL     1   RATE    -4.19750    
 BOUNDARY      2   LAYER   1   ROW     1   COL     2   RATE    -13.5039    
 BOUNDARY      3   LAYER   1   ROW     1   COL     3   RATE    -87.2746    
 BOUNDARY      4   LAYER   1   ROW     1   COL     4   RATE    -117.188    
 BOUNDARY      5   LAYER   1   ROW     1   COL     5   RATE    -117.188    
 BOUNDARY      6   LAYER   1   ROW     1   COL     6   RATE    -117.188    
 BOUNDARY      7   LAYER   1   ROW     1   COL     7   RATE    -117.188    
 BOUNDARY      8   LAYER   1   ROW     1   COL     8   RATE    -117.188    
 BOUNDARY      9   LAYER   1   ROW     1   COL     9   RATE    -117.188    
 BOUNDARY     10   LAYER   1   ROW     1   COL    10   RATE    -117.188    
 BOUNDARY     11   LAYER   1   ROW     1   COL    11   RATE    -117.188    
 BOUNDARY     12   LAYER   1   ROW     1   COL    12   RATE    -25.5776    
 BOUNDARY     13   LAYER   1   ROW     1   COL    13   RATE   -0.696418    
 BOUNDARY     14   LAYER   1   ROW     1   COL    14   RATE     0.00000    
 BOUNDARY     15   LAYER   1   ROW     1   COL    15   RATE     0.00000    
 BOUNDARY     16   LAYER   1   ROW     2   COL     1   RATE     0.00000    
 BOUNDARY     17   LAYER   1   ROW     2   COL     2   RATE    -6.92638    
 BOUNDARY     18   LAYER   1   ROW     2   COL     3   RATE    -54.4027    
 BOUNDARY     19   LAYER   1   ROW     2   COL     4   RATE    -117.188    
 BOUNDARY     20   LAYER   1   ROW     2   COL     5   RATE    -117.188    
 BOUNDARY     21   LAYER   1   ROW     2   COL     6   RATE    -117.188    
 BOUNDARY     22   LAYER   1   ROW     2   COL     7   RATE    -117.188    
 BOUNDARY     23   LAYER   1   ROW     2   COL     8   RATE    -117.188    
 BOUNDARY     24   LAYER   1   ROW     2   COL     9   RATE    -117.188    
 BOUNDARY     25   LAYER   1   ROW     2   COL    10   RATE    -117.188    
 BOUNDARY     26   LAYER   1   ROW     2   COL    11   RATE    -117.188    
 BOUNDARY     27   LAYER   1   ROW     2   COL    12   RATE    -27.6210    
 BOUNDARY     28   LAYER   1   ROW     2   COL    13   RATE    -1.85194    
 BOUNDARY     29   LAYER   1   ROW     2   COL    14   RATE     0.00000    
 BOUNDARY     30   LAYER   1   ROW     2   COL    15   RATE     0.00000    
 BOUNDARY     31   LAYER   1   ROW     3   COL     1   RATE     0.00000    
 BOUNDARY     32   LAYER   1   ROW     3   COL     2   RATE     0.00000    
 BOUNDARY     33   LAYER   1   ROW     3   COL     3   RATE    -31.8249    
 BOUNDARY     34   LAYER   1   ROW     3   COL     4   RATE    -117.188    
 BOUNDARY     35   LAYER   1   ROW     3   COL     5   RATE    -117.188    
 BOUNDARY     36   LAYER   1   ROW     3   COL     6   RATE    -117.188    
 BOUNDARY     37   LAYER   1   ROW     3   COL     7   RATE    -117.188    
 BOUNDARY     38   LAYER   1   ROW     3   COL     8   RATE    -117.188    
 BOUNDARY     39   LAYER   1   ROW     3   COL     9   RATE    -117.188    
 BOUNDARY     40   LAYER   1   ROW     3   COL    10   RATE    -117.188    
 BOUNDARY     41   LAYER   1   ROW     3   COL    11   RATE    -117.188    
 BOUNDARY     42   LAYER   1   ROW     3   COL    12   RATE    -31.0622    
 BOUNDARY     43   LAYER   1   ROW     3   COL    13   RATE    -3.95532    
 BOUNDARY     44   LAYER   1   ROW     3   COL    14   RATE     0.00000    
 BOUNDARY     45   LAYER   1   ROW     3   COL    15   RATE     0.00000    
 BOUNDARY     46   LAYER   1   ROW     4   COL     1   RATE     0.00000    
 BOUNDARY     47   LAYER   1   ROW     4   COL     2   RATE    -5.15422    
 BOUNDARY     48   LAYER   1   ROW     4   COL     3   RATE    -41.6510    
 BOUNDARY     49   LAYER   1   ROW     4   COL     4   RATE    -117.188    
 BOUNDARY     50   LAYER   1   ROW     4   COL     5   RATE    -117.188    
 BOUNDARY     51   LAYER   1   ROW     4   COL     6   RATE    -117.188    
 BOUNDARY     52   LAYER   1   ROW     4   COL     7   RATE    -117.188    
 BOUNDARY     53   LAYER   1   ROW     4   COL     8   RATE    -117.188    
 BOUNDARY     54   LAYER   1   ROW     4   COL     9   RATE    -117.188    
 BOUNDARY     55   LAYER   1   ROW     4   COL    10   RATE    -117.188    
 BOUNDARY     56   LAYER   1   ROW     4   COL    11   RATE    -117.188    
 BOUNDARY     57   LAYER   1   ROW     4   COL    12   RATE    -34.3195    
 BOUNDARY     58   LAYER   1   ROW     4   COL    13   RATE    -5.65191    
 BOUNDARY     59   LAYER   1   ROW     4   COL    14   RATE     0.00000    
 BOUNDARY     60   LAYER   1   ROW     4   COL    15   RATE     0.00000    
 BOUNDARY     61   LAYER   1   ROW     5   COL     1   RATE     0.00000    
 BOUNDARY     62   LAYER   1   ROW     5   COL     2   RATE    -8.66156    
 BOUNDARY     63   LAYER   1   ROW     5   COL     3   RATE    -65.8013    
 BOUNDARY     64   LAYER   1   ROW     5   COL     4   RATE    -117.188    
 BOUNDARY     65   LAYER   1   ROW     5   COL     5   RATE    -117.188    
 BOUNDARY     66   LAYER   1   ROW     5   COL     6   RATE    -117.188    
 BOUNDARY     67   LAYER   1   ROW     5   COL     7   RATE    -117.188    
 BOUNDARY     68   LAYER   1   ROW     5   COL     8   RATE    -117.188    
 BOUNDARY     69   LAYER   1   ROW     5   COL     9   RATE    -117.188    
 BOUNDARY     70   LAYER   1   ROW     5   COL    10   RATE    -117.188    
 BOUNDARY     71   LAYER   1   ROW     5   COL    11   RATE    -117.188    
 BOUNDARY     72   LAYER   1   ROW     5   COL    12   RATE    -42.4179    
 BOUNDARY     73   LAYER   1   ROW     5   COL    13   RATE    -6.67978    
 BOUNDARY     74   LAYER   1   ROW     5   COL    14   RATE     0.00000    
 BOUNDARY     75   LAYER   1   ROW     5   COL    15   RATE     0.00000    
 BOUNDARY     76   LAYER   1   ROW     6   COL     1   RATE     0.00000    
 BOUNDARY     77   LAYER   1   ROW     6   COL     2   RATE    -6.94807    
 BOUNDARY     78   LAYER   1   ROW     6   COL     3   RATE    -70.1084    
 BOUNDARY     79   LAYER   1   ROW     6   COL     4   RATE    -117.188    
 BOUNDARY     80   LAYER   1   ROW     6   COL     5   RATE    -117.188    
 BOUNDARY     81   LAYER   1   ROW     6   COL     6   RATE    -117.188    
 BOUNDARY     82   LAYER   1   ROW     6   COL     7   RATE    -117.188    
 BOUNDARY     83   LAYER   1   ROW     6   COL     8   RATE    -117.188    
 BOUNDARY     84   LAYER   1   ROW     6   COL     9   RATE    -117.188    
 BOUNDARY     85   LAYER   1   ROW     6   COL    10   RATE    -117.188    
 BOUNDARY     86   LAYER   1   ROW     6   COL    11   RATE    -117.188    
 BOUNDARY     87   LAYER   1   ROW     6   COL    12   RATE    -46.2940    
 BOUNDARY     88   LAYER   1   ROW     6   COL    13   RATE    -6.61997    
 BOUNDARY     89   LAYER   1   ROW     6   COL    14   RATE     0.00000    
 BOUNDARY     90   LAYER   1   ROW     6   COL    15   RATE     0.00000    
 BOUNDARY     91   LAYER   1   ROW     7   COL     1   RATE     0.00000    
 BOUNDARY     92   LAYER   1   ROW     7   COL     2   RATE    -2.74939    
 BOUNDARY     93   LAYER   1   ROW     7   COL     3   RATE    -78.0127    
 BOUNDARY     94   LAYER   1   ROW     7   COL     4   RATE    -117.188    
 BOUNDARY     95   LAYER   1   ROW     7   COL     5   RATE    -117.188    
 BOUNDARY     96   LAYER   1   ROW     7   COL     6   RATE    -117.188    
 BOUNDARY     97   LAYER   1   ROW     7   COL     7   RATE    -117.188    
 BOUNDARY     98   LAYER   1   ROW     7   COL     8   RATE    -117.188    
 BOUNDARY     99   LAYER   1   ROW     7   COL     9   RATE    -117.188    
 BOUNDARY    100   LAYER   1   ROW     7   COL    10   RATE    -117.188    
 BOUNDARY    101   LAYER   1   ROW     7   COL    11   RATE    -117.188    
 BOUNDARY    102   LAYER   1   ROW     7   COL    12   RATE    -45.4576    
 BOUNDARY    103   LAYER   1   ROW     7   COL    13   RATE    -5.78662    
 BOUNDARY    104   LAYER   1   ROW     7   COL    14   RATE     0.00000    
 BOUNDARY    105   LAYER   1   ROW     7   COL    15   RATE     0.00000    
 BOUNDARY    106   LAYER   1   ROW     8   COL     1   RATE     0.00000    
 BOUNDARY    107   LAYER   1   ROW     8   COL     2   RATE    -18.7782    
 BOUNDARY    108   LAYER   1   ROW     8   COL     3   RATE    -117.188    
 BOUNDARY    109   LAYER   1   ROW     8   COL     4   RATE    -117.188    
 BOUNDARY    110   LAYER   1   ROW     8   COL     5   RATE    -117.188    
 BOUNDARY    111   LAYER   1   ROW     8   COL     6   RATE    -117.188    
 BOUNDARY    112   LAYER   1   ROW     8   COL     7   RATE    -117.188    
 BOUNDARY    113   LAYER   1   ROW     8   COL     8   RATE    -117.188    
 BOUNDARY    114   LAYER   1   ROW     8   COL     9   RATE    -117.188    
 BOUNDARY    115   LAYER   1   ROW     8   COL    10   RATE    -117.188    
 BOUNDARY    116   LAYER   1   ROW     8   COL    11   RATE    -117.188    
 BOUNDARY    117   LAYER   1   ROW     8   COL    12   RATE    -48.0767    
 BOUNDARY    118   LAYER   1   ROW     8   COL    13   RATE    -5.83675    
 BOUNDARY    119   LAYER   1   ROW     8   COL    14   RATE     0.00000    
 BOUNDARY    120   LAYER   1   ROW     8   COL    15   RATE     0.00000    
 BOUNDARY    121   LAYER   1   ROW     9   COL     1   RATE    -27.7175    
 BOUNDARY    122   LAYER   1   ROW     9   COL     2   RATE    -100.777    
 BOUNDARY    123   LAYER   1   ROW     9   COL     3   RATE    -117.188    
 BOUNDARY    124   LAYER   1   ROW     9   COL     4   RATE    -117.188    
 BOUNDARY    125   LAYER   1   ROW     9   COL     5   RATE    -117.188    
 BOUNDARY    126   LAYER   1   ROW     9   COL     6   RATE    -117.188    
 BOUNDARY    127   LAYER   1   ROW     9   COL     7   RATE    -117.188    
 BOUNDARY    128   LAYER   1   ROW     9   COL     8   RATE    -117.188    
 BOUNDARY    129   LAYER   1   ROW     9   COL     9   RATE    -117.188    
 BOUNDARY    130   LAYER   1   ROW     9   COL    10   RATE    -117.188    
 BOUNDARY    131   LAYER   1   ROW     9   COL    11   RATE    -117.188    
 BOUNDARY    132   LAYER   1   ROW     9   COL    12   RATE    -55.0232    
 BOUNDARY    133   LAYER   1   ROW     9   COL    13   RATE    -6.85636    
 BOUNDARY    134   LAYER   1   ROW     9   COL    14   RATE     0.00000    
 BOUNDARY    135   LAYER   1   ROW     9   COL    15   RATE     0.00000    
 BOUNDARY    136   LAYER   1   ROW    10   COL     1   RATE    -110.258    
 BOUNDARY    137   LAYER   1   ROW    10   COL     2   RATE    -117.188    
 BOUNDARY    138   LAYER   1   ROW    10   COL     3   RATE    -117.188    
 BOUNDARY    139   LAYER   1   ROW    10   COL     4   RATE    -117.188    
 BOUNDARY    140   LAYER   1   ROW    10   COL     5   RATE    -117.188    
 BOUNDARY    141   LAYER   1   ROW    10   COL     6   RATE    -117.188    
 BOUNDARY    142   LAYER   1   ROW    10   COL     7   RATE    -117.188    
 BOUNDARY    143   LAYER   1   ROW    10   COL     8   RATE    -117.188    
 BOUNDARY    144   LAYER   1   ROW    10   COL     9   RATE    -117.188    
 BOUNDARY    145   LAYER   1   ROW    10   COL    10   RATE    -117.188    
 BOUNDARY    146   LAYER   1   ROW    10   COL    11   RATE    -117.188    
 BOUNDARY    147   LAYER   1   ROW    10   COL    12   RATE    -59.9915    
 BOUNDARY    148   LAYER   1   ROW    10   COL    13   RATE    -7.50592    
 BOUNDARY    149   LAYER   1   ROW    10   COL    14   RATE     0.00000    
 BOUNDARY    150   LAYER   1   ROW    10   COL    15   RATE     0.00000    

 HEAD WILL BE SAVED ON UNIT 1017 AT END OF TIME STEP    7, STRESS PERIOD    6
RIV   no.    1 value from time series:   101.00     for time:  128.0     to  129.0    
RIV   no.    2 value from time series:   101.00     for time:  128.0     to  129.0    
RIV   no.    3 value from time series:   111.50     for time:  128.0     to  129.0    
RIV   no.    4 value from time series:   111.50     for time:  128.0     to  129.0    
RIV   no.    5 value from time series:   115.10     for time:  128.0     to  129.0    
RIV   no.    6 value from time series:   115.10     for time:  128.0     to  129.0    
RIV   no.    7 value from time series:   104.00     for time:  128.0     to  129.0    
RIV   no.    8 value from time series:   104.00     for time:  128.0     to  129.0    
RIV   no.    9 value from time series:   113.50     for time:  128.0     to  129.0    
RIV   no.   10 value from time series:   113.50     for time:  128.0     to  129.0    
RIV   no.    1 value from time series:   101.00     for time:  128.0     to  129.0    
RIV   no.    2 value from time series:   101.00     for time:  128.0     to  129.0    
RIV   no.    3 value from time series:   111.50     for time:  128.0     to  129.0    
RIV   no.    4 value from time series:   111.50     for time:  128.0     to  129.0    
RIV   no.    5 value from time series:   115.10     for time:  128.0     to  129.0    
RIV   no.    6 value from time series:   115.10     for time:  128.0     to  129.0    
RIV   no.    7 value from time series:   104.00     for time:  128.0     to  129.0    
RIV   no.    8 value from time series:   104.00     for time:  128.0     to  129.0    
RIV   no.    9 value from time series:   113.50     for time:  128.0     to  129.0    
RIV   no.   10 value from time series:   113.50     for time:  128.0     to  129.0    

 OUTPUT CONTROL FOR STRESS PERIOD    6   TIME STEP    8
    SAVE BUDGET
    SAVE HEAD
    SAVE HEAD FOR ALL LAYERS
 UBDSV1 SAVING          STORAGE ON UNIT   1016 AT TIME STEP      8, STRESS PERIOD      6
 UBDSV1 SAVING FLOW RIGHT FACE  ON UNIT   1016 AT TIME STEP      8, STRESS PERIOD      6
 UBDSV1 SAVING FLOW FRONT FACE  ON UNIT   1016 AT TIME STEP      8, STRESS PERIOD      6
 UBDSV1 SAVING FLOW LOWER FACE  ON UNIT   1016 AT TIME STEP      8, STRESS PERIOD      6
 UBDSV4 SAVING WELLS NEAR RIVER ON UNIT   1016 AT TIME STEP      8, STRESS PERIOD      6
 UBDSV4 SAVING RIVER            ON UNIT   1016 AT TIME STEP      8, STRESS PERIOD      6

 RIVER              PERIOD  6   STEP  8
 BOUNDARY      1   LAYER   1   ROW     1   COL    15   RATE    -5023.21    
 BOUNDARY      2   LAYER   1   ROW     2   COL    15   RATE    -6150.22      RIV2
 BOUNDARY      3   LAYER   1   ROW     3   COL    15   RATE    -2415.15      RIV3
 BOUNDARY      4   LAYER   1   ROW     4   COL    15   RATE    -3880.29    
 BOUNDARY      5   LAYER   1   ROW     5   COL    15   RATE    -2516.45    
 BOUNDARY      6   LAYER   1   ROW     6   COL    15   RATE    -1863.17    
 BOUNDARY      7   LAYER   1   ROW     7   COL    15   RATE    -6350.16      RIVX
 BOUNDARY      8   LAYER   1   ROW     8   COL    15   RATE    -6200.80      RIVX
 BOUNDARY      9   LAYER   1   ROW     9   COL    15   RATE    -2410.15      RIVX
 BOUNDARY     10   LAYER   1   ROW    10   COL    15   RATE    -3317.80    

 GHB LAKES          PERIOD  6   STEP  8
 BOUNDARY      1   LAYER   1   ROW     3   COL     1   RATE    -14990.3    
 BOUNDARY      2   LAYER   1   ROW     7   COL     1   RATE    -2256.19      GHB2_UPPER
 BOUNDARY      3   LAYER   1   ROW     7   COL     1   RATE    -13383.9      GHB2_LOWER
 UBDSV4 SAVING RECHARGE         ON UNIT   1016 AT TIME STEP      8, STRESS PERIOD      6

 RECHARGE           PERIOD  6   STEP  8
 BOUNDARY      1   LAYER   1   ROW     1   COL     1   RATE     839.167    
 BOUNDARY      2   LAYER   1   ROW     1   COL     2   RATE     839.167    
 BOUNDARY      3   LAYER   1   ROW     1   COL     3   RATE     839.167    
 BOUNDARY      4   LAYER   1   ROW     1   COL     4   RATE     839.167    
 BOUNDARY      5   LAYER   1   ROW     1   COL     5   RATE     839.167    
 BOUNDARY      6   LAYER   1   ROW     1   COL     6   RATE     839.167    
 BOUNDARY      7   LAYER   1   ROW     1   COL     7   RATE     839.167    
 BOUNDARY      8   LAYER   1   ROW     1   COL     8   RATE     839.167    
 BOUNDARY      9   LAYER   1   ROW     1   COL     9   RATE     839.167    
 BOUNDARY     10   LAYER   1   ROW     1   COL    10   RATE     839.167    
 BOUNDARY     11   LAYER   1   ROW     1   COL    11   RATE     839.167    
 BOUNDARY     12   LAYER   1   ROW     1   COL    12   RATE     839.167    
 BOUNDARY     13   LAYER   1   ROW     1   COL    13   RATE     839.167    
 BOUNDARY     14   LAYER   1   ROW     1   COL    14   RATE     839.167    
 BOUNDARY     15   LAYER   1   ROW     1   COL    15   RATE     839.167    
 BOUNDARY     16   LAYER   1   ROW     2   COL     1   RATE     839.167    
 BOUNDARY     17   LAYER   1   ROW     2   COL     2   RATE     839.167    
 BOUNDARY     18   LAYER   1   ROW     2   COL     3   RATE     839.167    
 BOUNDARY     19   LAYER   1   ROW     2   COL     4   RATE     839.167    
 BOUNDARY     20   LAYER   1   ROW     2   COL     5   RATE     839.167    
 BOUNDARY     21   LAYER   1   ROW     2   COL     6   RATE     839.167    
 BOUNDARY     22   LAYER   1   ROW     2   COL     7   RATE     839.167    
 BOUNDARY     23   LAYER   1   ROW     2   COL     8   RATE     839.167    
 BOUNDARY     24   LAYER   1   ROW     2   COL     9   RATE     839.167    
 BOUNDARY     25   LAYER   1   ROW     2   COL    10   RATE     839.167    
 BOUNDARY     26   LAYER   1   ROW     2   COL    11   RATE     839.167    
 BOUNDARY     27   LAYER   1   ROW     2   COL    12   RATE     839.167    
 BOUNDARY     28   LAYER   1   ROW     2   COL    13   RATE     839.167    
 BOUNDARY     29   LAYER   1   ROW     2   COL    14   RATE     839.167    
 BOUNDARY     30   LAYER   1   ROW     2   COL    15   RATE     839.167    
 BOUNDARY     31   LAYER   1   ROW     3   COL     1   RATE     839.167    
 BOUNDARY     32   LAYER   1   ROW     3   COL     2   RATE     839.167    
 BOUNDARY     33   LAYER   1   ROW     3   COL     3   RATE     839.167    
 BOUNDARY     34   LAYER   1   ROW     3   COL     4   RATE     839.167    
 BOUNDARY     35   LAYER   1   ROW     3   COL     5   RATE     839.167    
 BOUNDARY     36   LAYER   1   ROW     3   COL     6   RATE     839.167    
 BOUNDARY     37   LAYER   1   ROW     3   COL     7   RATE     839.167    
 BOUNDARY     38   LAYER   1   ROW     3   COL     8   RATE     839.167    
 BOUNDARY     39   LAYER   1   ROW     3   COL     9   RATE     839.167    
 BOUNDARY     40   LAYER   1   ROW     3   COL    10   RATE     839.167    
 BOUNDARY     41   LAYER   1   ROW     3   COL    11   RATE     839.167    
 BOUNDARY     42   LAYER   1   ROW     3   COL    12   RATE     839.167    
 BOUNDARY     43   LAYER   1   ROW     3   COL    13   RATE     839.167    
 BOUNDARY     44   LAYER   1   ROW     3   COL    14   RATE     839.167    
 BOUNDARY     45   LAYER   1   ROW     3   COL    15   RATE     839.167    
 BOUNDARY     46   LAYER   1   ROW     4   COL     1   RATE     839.167    
 BOUNDARY     47   LAYER   1   ROW     4   COL     2   RATE     839.167    
 BOUNDARY     48   LAYER   1   ROW     4   COL     3   RATE     839.167    
 BOUNDARY     49   LAYER   1   ROW     4   COL     4   RATE     839.167    
 BOUNDARY     50   LAYER   1   ROW     4   COL     5   RATE     839.167    
 BOUNDARY     51   LAYER   1   ROW     4   COL     6   RATE     839.167    
 BOUNDARY     52   LAYER   1   ROW     4   COL     7   RATE     839.167    
 BOUNDARY     53   LAYER   1   ROW     4   COL     8   RATE     839.167    
 BOUNDARY     54   LAYER   1   ROW     4   COL     9   RATE     839.167    
 BOUNDARY     55   LAYER   1   ROW     4   COL    10   RATE     839.167    
 BOUNDARY     56   LAYER   1   ROW     4   COL    11   RATE     839.167    
 BOUNDARY     57   LAYER   1   ROW     4   COL    12   RATE     839.167    
 BOUNDARY     58   LAYER   1   ROW     4   COL    13   RATE     839.167    
 BOUNDARY     59   LAYER   1   ROW     4   COL    14   RATE     839.167    
 BOUNDARY     60   LAYER   1   ROW     4   COL    15   RATE     839.167    
 BOUNDARY     61   LAYER   1   ROW     5   COL     1   RATE     839.167    
 BOUNDARY     62   LAYER   1   ROW     5   COL     2   RATE     839.167    
 BOUNDARY     63   LAYER   1   ROW     5   COL     3   RATE     839.167    
 BOUNDARY     64   LAYER   1   ROW     5   COL     4   RATE     839.167    
 BOUNDARY     65   LAYER   1   ROW     5   COL     5   RATE     839.167    
 BOUNDARY     66   LAYER   1   ROW     5   COL     6   RATE     839.167    
 BOUNDARY     67   LAYER   1   ROW     5   COL     7   RATE     839.167    
 BOUNDARY     68   LAYER   1   ROW     5   COL     8   RATE     839.167    
 BOUNDARY     69   LAYER   1   ROW     5   COL     9   RATE     839.167    
 BOUNDARY     70   LAYER   1   ROW     5   COL    10   RATE     839.167    
 BOUNDARY     71   LAYER   1   ROW     5   COL    11   RATE     839.167    
 BOUNDARY     72   LAYER   1   ROW     5   COL    12   RATE     839.167    
 BOUNDARY     73   LAYER   1   ROW     5   COL    13   RATE     839.167    
 BOUNDARY     74   LAYER   1   ROW     5   COL    14   RATE     839.167    
 BOUNDARY     75   LAYER   1   ROW     5   COL    15   RATE     839.167    
 BOUNDARY     76   LAYER   1   ROW     6   COL     1   RATE     839.167    
 BOUNDARY     77   LAYER   1   ROW     6   COL     2   RATE     839.167    
 BOUNDARY     78   LAYER   1   ROW     6   COL     3   RATE     839.167    
 BOUNDARY     79   LAYER   1   ROW     6   COL     4   RATE     839.167    
 BOUNDARY     80   LAYER   1   ROW     6   COL     5   RATE     839.167    
 BOUNDARY     81   LAYER   1   ROW     6   COL     6   RATE     839.167    
 BOUNDARY     82   LAYER   1   ROW     6   COL     7   RATE     839.167    
 BOUNDARY     83   LAYER   1   ROW     6   COL     8   RATE     839.167    
 BOUNDARY     84   LAYER   1   ROW     6   COL     9   RATE     839.167    
 BOUNDARY     85   LAYER   1   ROW     6   COL    10   RATE     839.167    
 BOUNDARY     86   LAYER   1   ROW     6   COL    11   RATE     839.167    
 BOUNDARY     87   LAYER   1   ROW     6   COL    12   RATE     839.167    
 BOUNDARY     88   LAYER   1   ROW     6   COL    13   RATE     839.167    
 BOUNDARY     89   LAYER   1   ROW     6   COL    14   RATE     839.167    
 BOUNDARY     90   LAYER   1   ROW     6   COL    15   RATE     839.167    
 BOUNDARY     91   LAYER   1   ROW     7   COL     1   RATE     839.167    
 BOUNDARY     92   LAYER   1   ROW     7   COL     2   RATE     839.167    
 BOUNDARY     93   LAYER   1   ROW     7   COL     3   RATE     839.167    
 BOUNDARY     94   LAYER   1   ROW     7   COL     4   RATE     839.167    
 BOUNDARY     95   LAYER   1   ROW     7   COL     5   RATE     839.167    
 BOUNDARY     96   LAYER   1   ROW     7   COL     6   RATE     839.167    
 BOUNDARY     97   LAYER   1   ROW     7   COL     7   RATE     839.167    
 BOUNDARY     98   LAYER   1   ROW     7   COL     8   RATE     839.167    
 BOUNDARY     99   LAYER   1   ROW     7   COL     9   RATE     839.167    
 BOUNDARY    100   LAYER   1   ROW     7   COL    10   RATE     839.167    
 BOUNDARY    101   LAYER   1   ROW     7   COL    11   RATE     839.167    
 BOUNDARY    102   LAYER   1   ROW     7   COL    12   RATE     839.167    
 BOUNDARY    103   LAYER   1   ROW     7   COL    13   RATE     839.167    
 BOUNDARY    104   LAYER   1   ROW     7   COL    14   RATE     839.167    
 BOUNDARY    105   LAYER   1   ROW     7   COL    15   RATE     839.167    
 BOUNDARY    106   LAYER   1   ROW     8   COL     1   RATE     839.167    
 BOUNDARY    107   LAYER   1   ROW     8   COL     2   RATE     839.167    
 BOUNDARY    108   LAYER   1   ROW     8   COL     3   RATE     839.167    
 BOUNDARY    109   LAYER   1   ROW     8   COL     4   RATE     839.167    
 BOUNDARY    110   LAYER   1   ROW     8   COL     5   RATE     839.167    
 BOUNDARY    111   LAYER   1   ROW     8   COL     6   RATE     839.167    
 BOUNDARY    112   LAYER   1   ROW     8   COL     7   RATE     839.167    
 BOUNDARY    113   LAYER   1   ROW     8   COL     8   RATE     839.167    
 BOUNDARY    114   LAYER   1   ROW     8   COL     9   RATE     839.167    
 BOUNDARY    115   LAYER   1   ROW     8   COL    10   RATE     839.167    
 BOUNDARY    116   LAYER   1   ROW     8   COL    11   RATE     839.167    
 BOUNDARY    117   LAYER   1   ROW     8   COL    12   RATE     839.167    
 BOUNDARY    118   LAYER   1   ROW     8   COL    13   RATE     839.167    
 BOUNDARY    119   LAYER   1   ROW     8   COL    14   RATE     839.167    
 BOUNDARY    120   LAYER   1   ROW     8   COL    15   RATE     839.167    
 BOUNDARY    121   LAYER   1   ROW     9   COL     1   RATE     839.167    
 BOUNDARY    122   LAYER   1   ROW     9   COL     2   RATE     839.167    
 BOUNDARY    123   LAYER   1   ROW     9   COL     3   RATE     839.167    
 BOUNDARY    124   LAYER   1   ROW     9   COL     4   RATE     839.167    
 BOUNDARY    125   LAYER   1   ROW     9   COL     5   RATE     839.167    
 BOUNDARY    126   LAYER   1   ROW     9   COL     6   RATE     839.167    
 BOUNDARY    127   LAYER   1   ROW     9   COL     7   RATE     839.167    
 BOUNDARY    128   LAYER   1   ROW     9   COL     8   RATE     839.167    
 BOUNDARY    129   LAYER   1   ROW     9   COL     9   RATE     839.167    
 BOUNDARY    130   LAYER   1   ROW     9   COL    10   RATE     839.167    
 BOUNDARY    131   LAYER   1   ROW     9   COL    11   RATE     839.167    
 BOUNDARY    132   LAYER   1   ROW     9   COL    12   RATE     839.167    
 BOUNDARY    133   LAYER   1   ROW     9   COL    13   RATE     839.167    
 BOUNDARY    134   LAYER   1   ROW     9   COL    14   RATE     839.167    
 BOUNDARY    135   LAYER   1   ROW     9   COL    15   RATE     839.167    
 BOUNDARY    136   LAYER   1   ROW    10   COL     1   RATE     839.167    
 BOUNDARY    137   LAYER   1   ROW    10   COL     2   RATE     839.167    
 BOUNDARY    138   LAYER   1   ROW    10   COL     3   RATE     839.167    
 BOUNDARY    139   LAYER   1   ROW    10   COL     4   RATE     839.167    
 BOUNDARY    140   LAYER   1   ROW    10   COL     5   RATE     839.167    
 BOUNDARY    141   LAYER   1   ROW    10   COL     6   RATE     839.167    
 BOUNDARY    142   LAYER   1   ROW    10   COL     7   RATE     839.167    
 BOUNDARY    143   LAYER   1   ROW    10   COL     8   RATE     839.167    
 BOUNDARY    144   LAYER   1   ROW    10   COL     9   RATE     839.167    
 BOUNDARY    145   LAYER   1   ROW    10   COL    10   RATE     839.167    
 BOUNDARY    146   LAYER   1   ROW    10   COL    11   RATE     839.167    
 BOUNDARY    147   LAYER   1   ROW    10   COL    12   RATE     839.167    
 BOUNDARY    148   LAYER   1   ROW    10   COL    13   RATE     839.167    
 BOUNDARY    149   LAYER   1   ROW    10   COL    14   RATE     839.167    
 BOUNDARY    150   LAYER   1   ROW    10   COL    15   RATE     839.167    
 UBDSV4 SAVING ET SEGS          ON UNIT   1016 AT TIME STEP      8, STRESS PERIOD      6

 ET SEGS            PERIOD  6   STEP  8
 BOUNDARY      1   LAYER   1   ROW     1   COL     1   RATE    -4.24947    
 BOUNDARY      2   LAYER   1   ROW     1   COL     2   RATE    -13.6753    
 BOUNDARY      3   LAYER   1   ROW     1   COL     3   RATE    -88.2438    
 BOUNDARY      4   LAYER   1   ROW     1   COL     4   RATE    -117.812    
 BOUNDARY      5   LAYER   1   ROW     1   COL     5   RATE    -117.812    
 BOUNDARY      6   LAYER   1   ROW     1   COL     6   RATE    -117.812    
 BOUNDARY      7   LAYER   1   ROW     1   COL     7   RATE    -117.812    
 BOUNDARY      8   LAYER   1   ROW     1   COL     8   RATE    -117.812    
 BOUNDARY      9   LAYER   1   ROW     1   COL     9   RATE    -117.812    
 BOUNDARY     10   LAYER   1   ROW     1   COL    10   RATE    -117.812    
 BOUNDARY     11   LAYER   1   ROW     1   COL    11   RATE    -117.812    
 BOUNDARY     12   LAYER   1   ROW     1   COL    12   RATE    -25.8147    
 BOUNDARY     13   LAYER   1   ROW     1   COL    13   RATE   -0.729596    
 BOUNDARY     14   LAYER   1   ROW     1   COL    14   RATE     0.00000    
 BOUNDARY     15   LAYER   1   ROW     1   COL    15   RATE     0.00000    
 BOUNDARY     16   LAYER   1   ROW     2   COL     1   RATE     0.00000    
 BOUNDARY     17   LAYER   1   ROW     2   COL     2   RATE    -6.99244    
 BOUNDARY     18   LAYER   1   ROW     2   COL     3   RATE    -55.2003    
 BOUNDARY     19   LAYER   1   ROW     2   COL     4   RATE    -117.812    
 BOUNDARY     20   LAYER   1   ROW     2   COL     5   RATE    -117.812    
 BOUNDARY     21   LAYER   1   ROW     2   COL     6   RATE    -117.812    
 BOUNDARY     22   LAYER   1   ROW     2   COL     7   RATE    -117.812    
 BOUNDARY     23   LAYER   1   ROW     2   COL     8   RATE    -117.812    
 BOUNDARY     24   LAYER   1   ROW     2   COL     9   RATE    -117.812    
 BOUNDARY     25   LAYER   1   ROW     2   COL    10   RATE    -117.812    
 BOUNDARY     26   LAYER   1   ROW     2   COL    11   RATE    -117.812    
 BOUNDARY     27   LAYER   1   ROW     2   COL    12   RATE    -27.8689    
 BOUNDARY     28   LAYER   1   ROW     2   COL    13   RATE    -1.89129    
 BOUNDARY     29   LAYER   1   ROW     2   COL    14   RATE     0.00000    
 BOUNDARY     30   LAYER   1   ROW     2   COL    15   RATE     0.00000    
 BOUNDARY     31   LAYER   1   ROW     3   COL     1   RATE     0.00000    
 BOUNDARY     32   LAYER   1   ROW     3   COL     2   RATE     0.00000    
 BOUNDARY     33   LAYER   1   ROW     3   COL     3   RATE    -32.0923    
 BOUNDARY     34   LAYER   1   ROW     3   COL     4   RATE    -117.812    
 BOUNDARY     35   LAYER   1   ROW     3   COL     5   RATE    -117.812    
 BOUNDARY     36   LAYER   1   ROW     3   COL     6   RATE    -117.812    
 BOUNDARY     37   LAYER   1   ROW     3   COL     7   RATE    -117.812    
 BOUNDARY     38   LAYER   1   ROW     3   COL     8   RATE    -117.812    
 BOUNDARY     39   LAYER   1   ROW     3   COL     9   RATE    -117.812    
 BOUNDARY     40   LAYER   1   ROW     3   COL    10   RATE    -117.812    
 BOUNDARY     41   LAYER   1   ROW     3   COL    11   RATE    -117.812    
 BOUNDARY     42   LAYER   1   ROW     3   COL    12   RATE    -31.3283    
 BOUNDARY     43   LAYER   1   ROW     3   COL    13   RATE    -4.00583    
 BOUNDARY     44   LAYER   1   ROW     3   COL    14   RATE     0.00000    
 BOUNDARY     45   LAYER   1   ROW     3   COL    15   RATE     0.00000    
 BOUNDARY     46   LAYER   1   ROW     4   COL     1   RATE     0.00000    
 BOUNDARY     47   LAYER   1   ROW     4   COL     2   RATE    -5.21070    
 BOUNDARY     48   LAYER   1   ROW     4   COL     3   RATE    -42.3825    
 BOUNDARY     49   LAYER   1   ROW     4   COL     4   RATE    -117.812    
 BOUNDARY     50   LAYER   1   ROW     4   COL     5   RATE    -117.812    
 BOUNDARY     51   LAYER   1   ROW     4   COL     6   RATE    -117.812    
 BOUNDARY     52   LAYER   1   ROW     4   COL     7   RATE    -117.812    
 BOUNDARY     53   LAYER   1   ROW     4   COL     8   RATE    -117.812    
 BOUNDARY     54   LAYER   1   ROW     4   COL     9   RATE    -117.812    
 BOUNDARY     55   LAYER   1   ROW     4   COL    10   RATE    -117.812    
 BOUNDARY     56   LAYER   1   ROW     4   COL    11   RATE    -117.812    
 BOUNDARY     57   LAYER   1   ROW     4   COL    12   RATE    -34.6025    
 BOUNDARY     58   LAYER   1   ROW     4   COL    13   RATE    -5.71132    
 BOUNDARY     59   LAYER   1   ROW     4   COL    14   RATE     0.00000    
 BOUNDARY     60   LAYER   1   ROW     4   COL    15   RATE     0.00000    
 BOUNDARY     61   LAYER   1   ROW     5   COL     1   RATE     0.00000    
 BOUNDARY     62   LAYER   1   ROW     5   COL     2   RATE    -8.73716    
 BOUNDARY     63   LAYER   1   ROW     5   COL     3   RATE    -66.6545    
 BOUNDARY     64   LAYER   1   ROW     5   COL     4   RATE    -117.812    
 BOUNDARY     65   LAYER   1   ROW     5   COL     5   RATE    -117.812    
 BOUNDARY     66   LAYER   1   ROW     5   COL     6   RATE    -117.812    
 BOUNDARY     67   LAYER   1   ROW     5   COL     7   RATE    -117.812    
 BOUNDARY     68   LAYER   1   ROW     5   COL     8   RATE    -117.812    
 BOUNDARY     69   LAYER   1   ROW     5   COL     9   RATE    -117.812    
 BOUNDARY     70   LAYER   1   ROW     5   COL    10   RATE    -117.812    
 BOUNDARY     71   LAYER   1   ROW     5   COL    11   RATE    -117.812    
 BOUNDARY     72   LAYER   1   ROW     5   COL    12   RATE    -43.1595    
 BOUNDARY     73   LAYER   1   ROW     5   COL    13   RATE    -6.74443    
 BOUNDARY     74   LAYER   1   ROW     5   COL    14   RATE     0.00000    
 BOUNDARY     75   LAYER   1   ROW     5   COL    15   RATE     0.00000    
 BOUNDARY     76   LAYER   1   ROW     6   COL     1   RATE     0.00000    
 BOUNDARY     77   LAYER   1   ROW     6   COL     2   RATE    -7.01357    
 BOUNDARY     78   LAYER   1   ROW     6   COL     3   RATE    -70.9770    
 BOUNDARY     79   LAYER   1   ROW     6   COL     4   RATE    -117.812    
 BOUNDARY     80   LAYER   1   ROW     6   COL     5   RATE    -117.812    
 BOUNDARY     81   LAYER   1   ROW     6   COL     6   RATE    -117.812    
 BOUNDARY     82   LAYER   1   ROW     6   COL     7   RATE    -117.812    
 BOUNDARY     83   LAYER   1   ROW     6   COL     8   RATE    -117.812    
 BOUNDARY     84   LAYER   1   ROW     6   COL     9   RATE    -117.812    
 BOUNDARY     85   LAYER   1   ROW     6   COL    10   RATE    -117.812    
 BOUNDARY     86   LAYER   1   ROW     6   COL    11   RATE    -117.812    
 BOUNDARY     87   LAYER   1   ROW     6   COL    12   RATE    -47.0530    
 BOUNDARY     88   LAYER   1   ROW     6   COL    13   RATE    -6.68424    
 BOUNDARY     89   LAYER   1   ROW     6   COL    14   RATE     0.00000    
 BOUNDARY     90   LAYER   1   ROW     6   COL    15   RATE     0.00000    
 BOUNDARY     91   LAYER   1   ROW     7   COL     1   RATE     0.00000    
 BOUNDARY     92   LAYER   1   ROW     7   COL     2   RATE    -2.79028    
 BOUNDARY     93   LAYER   1   ROW     7   COL     3   RATE    -78.9158    
 BOUNDARY     94   LAYER   1   ROW     7   COL     4   RATE    -117.812    
 BOUNDARY     95   LAYER   1   ROW     7   COL     5   RATE    -117.812    
 BOUNDARY     96   LAYER   1   ROW     7   COL     6   RATE    -117.812    
 BOUNDARY     97   LAYER   1   ROW     7   COL     7   RATE    -117.812    
 BOUNDARY     98   LAYER   1   ROW     7   COL     8   RATE    -117.812    
 BOUNDARY     99   LAYER   1   ROW     7   COL     9   RATE    -117.812    
 BOUNDARY    100   LAYER   1   ROW     7   COL    10   RATE    -117.812    
 BOUNDARY    101   LAYER   1   ROW     7   COL    11   RATE    -117.812    
 BOUNDARY    102   LAYER   1   ROW     7   COL    12   RATE    -46.2132    
 BOUNDARY    103   LAYER   1   ROW     7   COL    13   RATE    -5.84665    
 BOUNDARY    104   LAYER   1   ROW     7   COL    14   RATE     0.00000    
 BOUNDARY    105   LAYER   1   ROW     7   COL    15   RATE     0.00000    
 BOUNDARY    106   LAYER   1   ROW     8   COL     1   RATE     0.00000    
 BOUNDARY    107   LAYER   1   ROW     8   COL     2   RATE    -18.9721    
 BOUNDARY    108   LAYER   1   ROW     8   COL     3   RATE    -117.812    
 BOUNDARY    109   LAYER   1   ROW     8   COL     4   RATE    -117.812    
 BOUNDARY    110   LAYER   1   ROW     8   COL     5   RATE    -117.812    
 BOUNDARY    111   LAYER   1   ROW     8   COL     6   RATE    -117.812    
 BOUNDARY    112   LAYER   1   ROW     8   COL     7   RATE    -117.812    
 BOUNDARY    113   LAYER   1   ROW     8   COL     8   RATE    -117.812    
 BOUNDARY    114   LAYER   1   ROW     8   COL     9   RATE    -117.812    
 BOUNDARY    115   LAYER   1   ROW     8   COL    10   RATE    -117.812    
 BOUNDARY    116   LAYER   1   ROW     8   COL    11   RATE    -117.812    
 BOUNDARY    117   LAYER   1   ROW     8   COL    12   RATE    -48.8477    
 BOUNDARY    118   LAYER   1   ROW     8   COL    13   RATE    -5.89736    
 BOUNDARY    119   LAYER   1   ROW     8   COL    14   RATE     0.00000    
 BOUNDARY    120   LAYER   1   ROW     8   COL    15   RATE     0.00000    
 BOUNDARY    121   LAYER   1   ROW     9   COL     1   RATE    -27.9598    
 BOUNDARY    122   LAYER   1   ROW     9   COL     2   RATE    -101.805    
 BOUNDARY    123   LAYER   1   ROW     9   COL     3   RATE    -117.812    
 BOUNDARY    124   LAYER   1   ROW     9   COL     4   RATE    -117.812    
 BOUNDARY    125   LAYER   1   ROW     9   COL     5   RATE    -117.812    
 BOUNDARY    126   LAYER   1   ROW     9   COL     6   RATE    -117.812    
 BOUNDARY    127   LAYER   1   ROW     9   COL     7   RATE    -117.812    
 BOUNDARY    128   LAYER   1   ROW     9   COL     8   RATE    -117.812    
 BOUNDARY    129   LAYER   1   ROW     9   COL     9   RATE    -117.812    
 BOUNDARY    130   LAYER   1   ROW     9   COL    10   RATE    -117.812    
 BOUNDARY    131   LAYER   1   ROW     9   COL    11   RATE    -117.812    
 BOUNDARY    132   LAYER   1   ROW     9   COL    12   RATE    -55.8318    
 BOUNDARY    133   LAYER   1   ROW     9   COL    13   RATE    -6.92269    
 BOUNDARY    134   LAYER   1   ROW     9   COL    14   RATE     0.00000    
 BOUNDARY    135   LAYER   1   ROW     9   COL    15   RATE     0.00000    
 BOUNDARY    136   LAYER   1   ROW    10   COL     1   RATE    -111.333    
 BOUNDARY    137   LAYER   1   ROW    10   COL     2   RATE    -117.812    
 BOUNDARY    138   LAYER   1   ROW    10   COL     3   RATE    -117.812    
 BOUNDARY    139   LAYER   1   ROW    10   COL     4   RATE    -117.812    
 BOUNDARY    140   LAYER   1   ROW    10   COL     5   RATE    -117.812    
 BOUNDARY    141   LAYER   1   ROW    10   COL     6   RATE    -117.812    
 BOUNDARY    142   LAYER   1   ROW    10   COL     7   RATE    -117.812    
 BOUNDARY    143   LAYER   1   ROW    10   COL     8   RATE    -117.812    
 BOUNDARY    144   LAYER   1   ROW    10   COL     9   RATE    -117.812    
 BOUNDARY    145   LAYER   1   ROW    10   COL    10   RATE    -117.812    
 BOUNDARY    146   LAYER   1   ROW    10   COL    11   RATE    -117.812    
 BOUNDARY    147   LAYER   1   ROW    10   COL    12   RATE    -60.8270    
 BOUNDARY    148   LAYER   1   ROW    10   COL    13   RATE    -7.57590    
 BOUNDARY    149   LAYER   1   ROW    10   COL    14   RATE     0.00000    
 BOUNDARY    150   LAYER   1   ROW    10   COL    15   RATE     0.00000    

 HEAD WILL BE SAVED ON UNIT 1017 AT END OF TIME STEP    8, STRESS PERIOD    6
RIV   no.    1 value from time series:   101.00     for time:  129.0     to  130.0    
RIV   no.    2 value from time series:   101.00     for time:  129.0     to  130.0    
RIV   no.    3 value from time series:   111.50     for time:  129.0     to  130.0    
RIV   no.    4 value from time series:   111.50     for time:  129.0     to  130.0    
RIV   no.    5 value from time series:   115.10     for time:  129.0     to  130.0    
RIV   no.    6 value from time series:   115.10     for time:  129.0     to  130.0    
RIV   no.    7 value from time series:   104.00     for time:  129.0     to  130.0    
RIV   no.    8 value from time series:   104.00     for time:  129.0     to  130.0    
RIV   no.    9 value from time series:   113.50     for time:  129.0     to  130.0    
RIV   no.   10 value from time series:   113.50     for time:  129.0     to  130.0    
RIV   no.    1 value from time series:   101.00     for time:  129.0     to  130.0    
RIV   no.    2 value from time series:   101.00     for time:  129.0     to  130.0    
RIV   no.    3 value from time series:   111.50     for time:  129.0     to  130.0    
RIV   no.    4 value from time series:   111.50     for time:  129.0     to  130.0    
RIV   no.    5 value from time series:   115.10     for time:  129.0     to  130.0    
RIV   no.    6 value from time series:   115.10     for time:  129.0     to  130.0    
RIV   no.    7 value from time series:   104.00     for time:  129.0     to  130.0    
RIV   no.    8 value from time series:   104.00     for time:  129.0     to  130.0    
RIV   no.    9 value from time series:   113.50     for time:  129.0     to  130.0    
RIV   no.   10 value from time series:   113.50     for time:  129.0     to  130.0    

 OUTPUT CONTROL FOR STRESS PERIOD    6   TIME STEP    9
    SAVE BUDGET
    SAVE HEAD
    SAVE HEAD FOR ALL LAYERS
 UBDSV1 SAVING          STORAGE ON UNIT   1016 AT TIME STEP      9, STRESS PERIOD      6
 UBDSV1 SAVING FLOW RIGHT FACE  ON UNIT   1016 AT TIME STEP      9, STRESS PERIOD      6
 UBDSV1 SAVING FLOW FRONT FACE  ON UNIT   1016 AT TIME STEP      9, STRESS PERIOD      6
 UBDSV1 SAVING FLOW LOWER FACE  ON UNIT   1016 AT TIME STEP      9, STRESS PERIOD      6
 UBDSV4 SAVING WELLS NEAR RIVER ON UNIT   1016 AT TIME STEP      9, STRESS PERIOD      6
 UBDSV4 SAVING RIVER            ON UNIT   1016 AT TIME STEP      9, STRESS PERIOD      6

 RIVER              PERIOD  6   STEP  9
 BOUNDARY      1   LAYER   1   ROW     1   COL    15   RATE    -5027.50    
 BOUNDARY      2   LAYER   1   ROW     2   COL    15   RATE    -6154.56      RIV2
 BOUNDARY      3   LAYER   1   ROW     3   COL    15   RATE    -2419.41      RIV3
 BOUNDARY      4   LAYER   1   ROW     4   COL    15   RATE    -3884.60    
 BOUNDARY      5   LAYER   1   ROW     5   COL    15   RATE    -2520.71    
 BOUNDARY      6   LAYER   1   ROW     6   COL    15   RATE    -1867.40    
 BOUNDARY      7   LAYER   1   ROW     7   COL    15   RATE    -6354.57      RIVX
 BOUNDARY      8   LAYER   1   ROW     8   COL    15   RATE    -6205.26      RIVX
 BOUNDARY      9   LAYER   1   ROW     9   COL    15   RATE    -2414.56      RIVX
 BOUNDARY     10   LAYER   1   ROW    10   COL    15   RATE    -3322.27    

 GHB LAKES          PERIOD  6   STEP  9
 BOUNDARY      1   LAYER   1   ROW     3   COL     1   RATE    -14998.5    
 BOUNDARY      2   LAYER   1   ROW     7   COL     1   RATE    -2262.66      GHB2_UPPER
 BOUNDARY      3   LAYER   1   ROW     7   COL     1   RATE    -13386.2      GHB2_LOWER
 UBDSV4 SAVING RECHARGE         ON UNIT   1016 AT TIME STEP      9, STRESS PERIOD      6

 RECHARGE           PERIOD  6   STEP  9
 BOUNDARY      1   LAYER   1   ROW     1   COL     1   RATE     840.833    
 BOUNDARY      2   LAYER   1   ROW     1   COL     2   RATE     840.833    
 BOUNDARY      3   LAYER   1   ROW     1   COL     3   RATE     840.833    
 BOUNDARY      4   LAYER   1   ROW     1   COL     4   RATE     840.833    
 BOUNDARY      5   LAYER   1   ROW     1   COL     5   RATE     840.833    
 BOUNDARY      6   LAYER   1   ROW     1   COL     6   RATE     840.833    
 BOUNDARY      7   LAYER   1   ROW     1   COL     7   RATE     840.833    
 BOUNDARY      8   LAYER   1   ROW     1   COL     8   RATE     840.833    
 BOUNDARY      9   LAYER   1   ROW     1   COL     9   RATE     840.833    
 BOUNDARY     10   LAYER   1   ROW     1   COL    10   RATE     840.833    
 BOUNDARY     11   LAYER   1   ROW     1   COL    11   RATE     840.833    
 BOUNDARY     12   LAYER   1   ROW     1   COL    12   RATE     840.833    
 BOUNDARY     13   LAYER   1   ROW     1   COL    13   RATE     840.833    
 BOUNDARY     14   LAYER   1   ROW     1   COL    14   RATE     840.833    
 BOUNDARY     15   LAYER   1   ROW     1   COL    15   RATE     840.833    
 BOUNDARY     16   LAYER   1   ROW     2   COL     1   RATE     840.833    
 BOUNDARY     17   LAYER   1   ROW     2   COL     2   RATE     840.833    
 BOUNDARY     18   LAYER   1   ROW     2   COL     3   RATE     840.833    
 BOUNDARY     19   LAYER   1   ROW     2   COL     4   RATE     840.833    
 BOUNDARY     20   LAYER   1   ROW     2   COL     5   RATE     840.833    
 BOUNDARY     21   LAYER   1   ROW     2   COL     6   RATE     840.833    
 BOUNDARY     22   LAYER   1   ROW     2   COL     7   RATE     840.833    
 BOUNDARY     23   LAYER   1   ROW     2   COL     8   RATE     840.833    
 BOUNDARY     24   LAYER   1   ROW     2   COL     9   RATE     840.833    
 BOUNDARY     25   LAYER   1   ROW     2   COL    10   RATE     840.833    
 BOUNDARY     26   LAYER   1   ROW     2   COL    11   RATE     840.833    
 BOUNDARY     27   LAYER   1   ROW     2   COL    12   RATE     840.833    
 BOUNDARY     28   LAYER   1   ROW     2   COL    13   RATE     840.833    
 BOUNDARY     29   LAYER   1   ROW     2   COL    14   RATE     840.833    
 BOUNDARY     30   LAYER   1   ROW     2   COL    15   RATE     840.833    
 BOUNDARY     31   LAYER   1   ROW     3   COL     1   RATE     840.833    
 BOUNDARY     32   LAYER   1   ROW     3   COL     2   RATE     840.833    
 BOUNDARY     33   LAYER   1   ROW     3   COL     3   RATE     840.833    
 BOUNDARY     34   LAYER   1   ROW     3   COL     4   RATE     840.833    
 BOUNDARY     35   LAYER   1   ROW     3   COL     5   RATE     840.833    
 BOUNDARY     36   LAYER   1   ROW     3   COL     6   RATE     840.833    
 BOUNDARY     37   LAYER   1   ROW     3   COL     7   RATE     840.833    
 BOUNDARY     38   LAYER   1   ROW     3   COL     8   RATE     840.833    
 BOUNDARY     39   LAYER   1   ROW     3   COL     9   RATE     840.833    
 BOUNDARY     40   LAYER   1   ROW     3   COL    10   RATE     840.833    
 BOUNDARY     41   LAYER   1   ROW     3   COL    11   RATE     840.833    
 BOUNDARY     42   LAYER   1   ROW     3   COL    12   RATE     840.833    
 BOUNDARY     43   LAYER   1   ROW     3   COL    13   RATE     840.833    
 BOUNDARY     44   LAYER   1   ROW     3   COL    14   RATE     840.833    
 BOUNDARY     45   LAYER   1   ROW     3   COL    15   RATE     840.833    
 BOUNDARY     46   LAYER   1   ROW     4   COL     1   RATE     840.833    
 BOUNDARY     47   LAYER   1   ROW     4   COL     2   RATE     840.833    
 BOUNDARY     48   LAYER   1   ROW     4   COL     3   RATE     840.833    
 BOUNDARY     49   LAYER   1   ROW     4   COL     4   RATE     840.833    
 BOUNDARY     50   LAYER   1   ROW     4   COL     5   RATE     840.833    
 BOUNDARY     51   LAYER   1   ROW     4   COL     6   RATE     840.833    
 BOUNDARY     52   LAYER   1   ROW     4   COL     7   RATE     840.833    
 BOUNDARY     53   LAYER   1   ROW     4   COL     8   RATE     840.833    
 BOUNDARY     54   LAYER   1   ROW     4   COL     9   RATE     840.833    
 BOUNDARY     55   LAYER   1   ROW     4   COL    10   RATE     840.833    
 BOUNDARY     56   LAYER   1   ROW     4   COL    11   RATE     840.833    
 BOUNDARY     57   LAYER   1   ROW     4   COL    12   RATE     840.833    
 BOUNDARY     58   LAYER   1   ROW     4   COL    13   RATE     840.833    
 BOUNDARY     59   LAYER   1   ROW     4   COL    14   RATE     840.833    
 BOUNDARY     60   LAYER   1   ROW     4   COL    15   RATE     840.833    
 BOUNDARY     61   LAYER   1   ROW     5   COL     1   RATE     840.833    
 BOUNDARY     62   LAYER   1   ROW     5   COL     2   RATE     840.833    
 BOUNDARY     63   LAYER   1   ROW     5   COL     3   RATE     840.833    
 BOUNDARY     64   LAYER   1   ROW     5   COL     4   RATE     840.833    
 BOUNDARY     65   LAYER   1   ROW     5   COL     5   RATE     840.833    
 BOUNDARY     66   LAYER   1   ROW     5   COL     6   RATE     840.833    
 BOUNDARY     67   LAYER   1   ROW     5   COL     7   RATE     840.833    
 BOUNDARY     68   LAYER   1   ROW     5   COL     8   RATE     840.833    
 BOUNDARY     69   LAYER   1   ROW     5   COL     9   RATE     840.833    
 BOUNDARY     70   LAYER   1   ROW     5   COL    10   RATE     840.833    
 BOUNDARY     71   LAYER   1   ROW     5   COL    11   RATE     840.833    
 BOUNDARY     72   LAYER   1   ROW     5   COL    12   RATE     840.833    
 BOUNDARY     73   LAYER   1   ROW     5   COL    13   RATE     840.833    
 BOUNDARY     74   LAYER   1   ROW     5   COL    14   RATE     840.833    
 BOUNDARY     75   LAYER   1   ROW     5   COL    15   RATE     840.833    
 BOUNDARY     76   LAYER   1   ROW     6   COL     1   RATE     840.833    
 BOUNDARY     77   LAYER   1   ROW     6   COL     2   RATE     840.833    
 BOUNDARY     78   LAYER   1   ROW     6   COL     3   RATE     840.833    
 BOUNDARY     79   LAYER   1   ROW     6   COL     4   RATE     840.833    
 BOUNDARY     80   LAYER   1   ROW     6   COL     5   RATE     840.833    
 BOUNDARY     81   LAYER   1   ROW     6   COL     6   RATE     840.833    
 BOUNDARY     82   LAYER   1   ROW     6   COL     7   RATE     840.833    
 BOUNDARY     83   LAYER   1   ROW     6   COL     8   RATE     840.833    
 BOUNDARY     84   LAYER   1   ROW     6   COL     9   RATE     840.833    
 BOUNDARY     85   LAYER   1   ROW     6   COL    10   RATE     840.833    
 BOUNDARY     86   LAYER   1   ROW     6   COL    11   RATE     840.833    
 BOUNDARY     87   LAYER   1   ROW     6   COL    12   RATE     840.833    
 BOUNDARY     88   LAYER   1   ROW     6   COL    13   RATE     840.833    
 BOUNDARY     89   LAYER   1   ROW     6   COL    14   RATE     840.833    
 BOUNDARY     90   LAYER   1   ROW     6   COL    15   RATE     840.833    
 BOUNDARY     91   LAYER   1   ROW     7   COL     1   RATE     840.833    
 BOUNDARY     92   LAYER   1   ROW     7   COL     2   RATE     840.833    
 BOUNDARY     93   LAYER   1   ROW     7   COL     3   RATE     840.833    
 BOUNDARY     94   LAYER   1   ROW     7   COL     4   RATE     840.833    
 BOUNDARY     95   LAYER   1   ROW     7   COL     5   RATE     840.833    
 BOUNDARY     96   LAYER   1   ROW     7   COL     6   RATE     840.833    
 BOUNDARY     97   LAYER   1   ROW     7   COL     7   RATE     840.833    
 BOUNDARY     98   LAYER   1   ROW     7   COL     8   RATE     840.833    
 BOUNDARY     99   LAYER   1   ROW     7   COL     9   RATE     840.833    
 BOUNDARY    100   LAYER   1   ROW     7   COL    10   RATE     840.833    
 BOUNDARY    101   LAYER   1   ROW     7   COL    11   RATE     840.833    
 BOUNDARY    102   LAYER   1   ROW     7   COL    12   RATE     840.833    
 BOUNDARY    103   LAYER   1   ROW     7   COL    13   RATE     840.833    
 BOUNDARY    104   LAYER   1   ROW     7   COL    14   RATE     840.833    
 BOUNDARY    105   LAYER   1   ROW     7   COL    15   RATE     840.833    
 BOUNDARY    106   LAYER   1   ROW     8   COL     1   RATE     840.833    
 BOUNDARY    107   LAYER   1   ROW     8   COL     2   RATE     840.833    
 BOUNDARY    108   LAYER   1   ROW     8   COL     3   RATE     840.833    
 BOUNDARY    109   LAYER   1   ROW     8   COL     4   RATE     840.833    
 BOUNDARY    110   LAYER   1   ROW     8   COL     5   RATE     840.833    
 BOUNDARY    111   LAYER   1   ROW     8   COL     6   RATE     840.833    
 BOUNDARY    112   LAYER   1   ROW     8   COL     7   RATE     840.833    
 BOUNDARY    113   LAYER   1   ROW     8   COL     8   RATE     840.833    
 BOUNDARY    114   LAYER   1   ROW     8   COL     9   RATE     840.833    
 BOUNDARY    115   LAYER   1   ROW     8   COL    10   RATE     840.833    
 BOUNDARY    116   LAYER   1   ROW     8   COL    11   RATE     840.833    
 BOUNDARY    117   LAYER   1   ROW     8   COL    12   RATE     840.833    
 BOUNDARY    118   LAYER   1   ROW     8   COL    13   RATE     840.833    
 BOUNDARY    119   LAYER   1   ROW     8   COL    14   RATE     840.833    
 BOUNDARY    120   LAYER   1   ROW     8   COL    15   RATE     840.833    
 BOUNDARY    121   LAYER   1   ROW     9   COL     1   RATE     840.833    
 BOUNDARY    122   LAYER   1   ROW     9   COL     2   RATE     840.833    
 BOUNDARY    123   LAYER   1   ROW     9   COL     3   RATE     840.833    
 BOUNDARY    124   LAYER   1   ROW     9   COL     4   RATE     840.833    
 BOUNDARY    125   LAYER   1   ROW     9   COL     5   RATE     840.833    
 BOUNDARY    126   LAYER   1   ROW     9   COL     6   RATE     840.833    
 BOUNDARY    127   LAYER   1   ROW     9   COL     7   RATE     840.833    
 BOUNDARY    128   LAYER   1   ROW     9   COL     8   RATE     840.833    
 BOUNDARY    129   LAYER   1   ROW     9   COL     9   RATE     840.833    
 BOUNDARY    130   LAYER   1   ROW     9   COL    10   RATE     840.833    
 BOUNDARY    131   LAYER   1   ROW     9   COL    11   RATE     840.833    
 BOUNDARY    132   LAYER   1   ROW     9   COL    12   RATE     840.833    
 BOUNDARY    133   LAYER   1   ROW     9   COL    13   RATE     840.833    
 BOUNDARY    134   LAYER   1   ROW     9   COL    14   RATE     840.833    
 BOUNDARY    135   LAYER   1   ROW     9   COL    15   RATE     840.833    
 BOUNDARY    136   LAYER   1   ROW    10   COL     1   RATE     840.833    
 BOUNDARY    137   LAYER   1   ROW    10   COL     2   RATE     840.833    
 BOUNDARY    138   LAYER   1   ROW    10   COL     3   RATE     840.833    
 BOUNDARY    139   LAYER   1   ROW    10   COL     4   RATE     840.833    
 BOUNDARY    140   LAYER   1   ROW    10   COL     5   RATE     840.833    
 BOUNDARY    141   LAYER   1   ROW    10   COL     6   RATE     840.833    
 BOUNDARY    142   LAYER   1   ROW    10   COL     7   RATE     840.833    
 BOUNDARY    143   LAYER   1   ROW    10   COL     8   RATE     840.833    
 BOUNDARY    144   LAYER   1   ROW    10   COL     9   RATE     840.833    
 BOUNDARY    145   LAYER   1   ROW    10   COL    10   RATE     840.833    
 BOUNDARY    146   LAYER   1   ROW    10   COL    11   RATE     840.833    
 BOUNDARY    147   LAYER   1   ROW    10   COL    12   RATE     840.833    
 BOUNDARY    148   LAYER   1   ROW    10   COL    13   RATE     840.833    
 BOUNDARY    149   LAYER   1   ROW    10   COL    14   RATE     840.833    
 BOUNDARY    150   LAYER   1   ROW    10   COL    15   RATE     840.833    
 UBDSV4 SAVING ET SEGS          ON UNIT   1016 AT TIME STEP      9, STRESS PERIOD      6

 ET SEGS            PERIOD  6   STEP  9
 BOUNDARY      1   LAYER   1   ROW     1   COL     1   RATE    -4.30186    
 BOUNDARY      2   LAYER   1   ROW     1   COL     2   RATE    -13.8480    
 BOUNDARY      3   LAYER   1   ROW     1   COL     3   RATE    -89.2197    
 BOUNDARY      4   LAYER   1   ROW     1   COL     4   RATE    -118.438    
 BOUNDARY      5   LAYER   1   ROW     1   COL     5   RATE    -118.438    
 BOUNDARY      6   LAYER   1   ROW     1   COL     6   RATE    -118.438    
 BOUNDARY      7   LAYER   1   ROW     1   COL     7   RATE    -118.438    
 BOUNDARY      8   LAYER   1   ROW     1   COL     8   RATE    -118.438    
 BOUNDARY      9   LAYER   1   ROW     1   COL     9   RATE    -118.438    
 BOUNDARY     10   LAYER   1   ROW     1   COL    10   RATE    -118.438    
 BOUNDARY     11   LAYER   1   ROW     1   COL    11   RATE    -118.438    
 BOUNDARY     12   LAYER   1   ROW     1   COL    12   RATE    -26.0532    
 BOUNDARY     13   LAYER   1   ROW     1   COL    13   RATE   -0.763189    
 BOUNDARY     14   LAYER   1   ROW     1   COL    14   RATE     0.00000    
 BOUNDARY     15   LAYER   1   ROW     1   COL    15   RATE     0.00000    
 BOUNDARY     16   LAYER   1   ROW     2   COL     1   RATE     0.00000    
 BOUNDARY     17   LAYER   1   ROW     2   COL     2   RATE    -7.05890    
 BOUNDARY     18   LAYER   1   ROW     2   COL     3   RATE    -56.0047    
 BOUNDARY     19   LAYER   1   ROW     2   COL     4   RATE    -118.438    
 BOUNDARY     20   LAYER   1   ROW     2   COL     5   RATE    -118.438    
 BOUNDARY     21   LAYER   1   ROW     2   COL     6   RATE    -118.438    
 BOUNDARY     22   LAYER   1   ROW     2   COL     7   RATE    -118.438    
 BOUNDARY     23   LAYER   1   ROW     2   COL     8   RATE    -118.438    
 BOUNDARY     24   LAYER   1   ROW     2   COL     9   RATE    -118.438    
 BOUNDARY     25   LAYER   1   ROW     2   COL    10   RATE    -118.438    
 BOUNDARY     26   LAYER   1   ROW     2   COL    11   RATE    -118.438    
 BOUNDARY     27   LAYER   1   ROW     2   COL    12   RATE    -28.1183    
 BOUNDARY     28   LAYER   1   ROW     2   COL    13   RATE    -1.93105    
 BOUNDARY     29   LAYER   1   ROW     2   COL    14   RATE     0.00000    
 BOUNDARY     30   LAYER   1   ROW     2   COL    15   RATE     0.00000    
 BOUNDARY     31   LAYER   1   ROW     3   COL     1   RATE     0.00000    
 BOUNDARY     32   LAYER   1   ROW     3   COL     2   RATE     0.00000    
 BOUNDARY     33   LAYER   1   ROW     3   COL     3   RATE    -32.3610    
 BOUNDARY     34   LAYER   1   ROW     3   COL     4   RATE    -118.438    
 BOUNDARY     35   LAYER   1   ROW     3   COL     5   RATE    -118.438    
 BOUNDARY     36   LAYER   1   ROW     3   COL     6   RATE    -118.438    
 BOUNDARY     37   LAYER   1   ROW     3   COL     7   RATE    -118.438    
 BOUNDARY     38   LAYER   1   ROW     3   COL     8   RATE    -118.438    
 BOUNDARY     39   LAYER   1   ROW     3   COL     9   RATE    -118.438    
 BOUNDARY     40   LAYER   1   ROW     3   COL    10   RATE    -118.438    
 BOUNDARY     41   LAYER   1   ROW     3   COL    11   RATE    -118.438    
 BOUNDARY     42   LAYER   1   ROW     3   COL    12   RATE    -31.5959    
 BOUNDARY     43   LAYER   1   ROW     3   COL    13   RATE    -4.05674    
 BOUNDARY     44   LAYER   1   ROW     3   COL    14   RATE     0.00000    
 BOUNDARY     45   LAYER   1   ROW     3   COL    15   RATE     0.00000    
 BOUNDARY     46   LAYER   1   ROW     4   COL     1   RATE     0.00000    
 BOUNDARY     47   LAYER   1   ROW     4   COL     2   RATE    -5.26759    
 BOUNDARY     48   LAYER   1   ROW     4   COL     3   RATE    -43.1209    
 BOUNDARY     49   LAYER   1   ROW     4   COL     4   RATE    -118.438    
 BOUNDARY     50   LAYER   1   ROW     4   COL     5   RATE    -118.438    
 BOUNDARY     51   LAYER   1   ROW     4   COL     6   RATE    -118.438    
 BOUNDARY     52   LAYER   1   ROW     4   COL     7   RATE    -118.438    
 BOUNDARY     53   LAYER   1   ROW     4   COL     8   RATE    -118.438    
 BOUNDARY     54   LAYER   1   ROW     4   COL     9   RATE    -118.438    
 BOUNDARY     55   LAYER   1   ROW     4   COL    10   RATE    -118.438    
 BOUNDARY     56   LAYER   1   ROW     4   COL    11   RATE    -118.438    
 BOUNDARY     57   LAYER   1   ROW     4   COL    12   RATE    -34.8869    
 BOUNDARY     58   LAYER   1   ROW     4   COL    13   RATE    -5.77113    
 BOUNDARY     59   LAYER   1   ROW     4   COL    14   RATE     0.00000    
 BOUNDARY     60   LAYER   1   ROW     4   COL    15   RATE     0.00000    
 BOUNDARY     61   LAYER   1   ROW     5   COL     1   RATE     0.00000    
 BOUNDARY     62   LAYER   1   ROW     5   COL     2   RATE    -8.81318    
 BOUNDARY     63   LAYER   1   ROW     5   COL     3   RATE    -67.5148    
 BOUNDARY     64   LAYER   1   ROW     5   COL     4   RATE    -118.438    
 BOUNDARY     65   LAYER   1   ROW     5   COL     5   RATE    -118.438    
 BOUNDARY     66   LAYER   1   ROW     5   COL     6   RATE    -118.438    
 BOUNDARY     67   LAYER   1   ROW     5   COL     7   RATE    -118.438    
 BOUNDARY     68   LAYER   1   ROW     5   COL     8   RATE    -118.438    
 BOUNDARY     69   LAYER   1   ROW     5   COL     9   RATE    -118.438    
 BOUNDARY     70   LAYER   1   ROW     5   COL    10   RATE    -118.438    
 BOUNDARY     71   LAYER   1   ROW     5   COL    11   RATE    -118.438    
 BOUNDARY     72   LAYER   1   ROW     5   COL    12   RATE    -43.9079    
 BOUNDARY     73   LAYER   1   ROW     5   COL    13   RATE    -6.80949    
 BOUNDARY     74   LAYER   1   ROW     5   COL    14   RATE     0.00000    
 BOUNDARY     75   LAYER   1   ROW     5   COL    15   RATE     0.00000    
 BOUNDARY     76   LAYER   1   ROW     6   COL     1   RATE     0.00000    
 BOUNDARY     77   LAYER   1   ROW     6   COL     2   RATE    -7.07949    
 BOUNDARY     78   LAYER   1   ROW     6   COL     3   RATE    -71.8527    
 BOUNDARY     79   LAYER   1   ROW     6   COL     4   RATE    -118.438    
 BOUNDARY     80   LAYER   1   ROW     6   COL     5   RATE    -118.438    
 BOUNDARY     81   LAYER   1   ROW     6   COL     6   RATE    -118.438    
 BOUNDARY     82   LAYER   1   ROW     6   COL     7   RATE    -118.438    
 BOUNDARY     83   LAYER   1   ROW     6   COL     8   RATE    -118.438    
 BOUNDARY     84   LAYER   1   ROW     6   COL     9   RATE    -118.438    
 BOUNDARY     85   LAYER   1   ROW     6   COL    10   RATE    -118.438    
 BOUNDARY     86   LAYER   1   ROW     6   COL    11   RATE    -118.438    
 BOUNDARY     87   LAYER   1   ROW     6   COL    12   RATE    -47.8188    
 BOUNDARY     88   LAYER   1   ROW     6   COL    13   RATE    -6.74890    
 BOUNDARY     89   LAYER   1   ROW     6   COL    14   RATE     0.00000    
 BOUNDARY     90   LAYER   1   ROW     6   COL    15   RATE     0.00000    
 BOUNDARY     91   LAYER   1   ROW     7   COL     1   RATE     0.00000    
 BOUNDARY     92   LAYER   1   ROW     7   COL     2   RATE    -2.83155    
 BOUNDARY     93   LAYER   1   ROW     7   COL     3   RATE    -79.8261    
 BOUNDARY     94   LAYER   1   ROW     7   COL     4   RATE    -118.438    
 BOUNDARY     95   LAYER   1   ROW     7   COL     5   RATE    -118.438    
 BOUNDARY     96   LAYER   1   ROW     7   COL     6   RATE    -118.438    
 BOUNDARY     97   LAYER   1   ROW     7   COL     7   RATE    -118.438    
 BOUNDARY     98   LAYER   1   ROW     7   COL     8   RATE    -118.438    
 BOUNDARY     99   LAYER   1   ROW     7   COL     9   RATE    -118.438    
 BOUNDARY    100   LAYER   1   ROW     7   COL    10   RATE    -118.438    
 BOUNDARY    101   LAYER   1   ROW     7   COL    11   RATE    -118.438    
 BOUNDARY    102   LAYER   1   ROW     7   COL    12   RATE    -46.9757    
 BOUNDARY    103   LAYER   1   ROW     7   COL    13   RATE    -5.90708    
 BOUNDARY    104   LAYER   1   ROW     7   COL    14   RATE     0.00000    
 BOUNDARY    105   LAYER   1   ROW     7   COL    15   RATE     0.00000    
 BOUNDARY    106   LAYER   1   ROW     8   COL     1   RATE     0.00000    
 BOUNDARY    107   LAYER   1   ROW     8   COL     2   RATE    -19.1673    
 BOUNDARY    108   LAYER   1   ROW     8   COL     3   RATE    -118.438    
 BOUNDARY    109   LAYER   1   ROW     8   COL     4   RATE    -118.438    
 BOUNDARY    110   LAYER   1   ROW     8   COL     5   RATE    -118.438    
 BOUNDARY    111   LAYER   1   ROW     8   COL     6   RATE    -118.438    
 BOUNDARY    112   LAYER   1   ROW     8   COL     7   RATE    -118.438    
 BOUNDARY    113   LAYER   1   ROW     8   COL     8   RATE    -118.438    
 BOUNDARY    114   LAYER   1   ROW     8   COL     9   RATE    -118.438    
 BOUNDARY    115   LAYER   1   ROW     8   COL    10   RATE    -118.438    
 BOUNDARY    116   LAYER   1   ROW     8   COL    11   RATE    -118.438    
 BOUNDARY    117   LAYER   1   ROW     8   COL    12   RATE    -49.6254    
 BOUNDARY    118   LAYER   1   ROW     8   COL    13   RATE    -5.95838    
 BOUNDARY    119   LAYER   1   ROW     8   COL    14   RATE     0.00000    
 BOUNDARY    120   LAYER   1   ROW     8   COL    15   RATE     0.00000    
 BOUNDARY    121   LAYER   1   ROW     9   COL     1   RATE    -28.2034    
 BOUNDARY    122   LAYER   1   ROW     9   COL     2   RATE    -102.841    
 BOUNDARY    123   LAYER   1   ROW     9   COL     3   RATE    -118.438    
 BOUNDARY    124   LAYER   1   ROW     9   COL     4   RATE    -118.438    
 BOUNDARY    125   LAYER   1   ROW     9   COL     5   RATE    -118.438    
 BOUNDARY    126   LAYER   1   ROW     9   COL     6   RATE    -118.438    
 BOUNDARY    127   LAYER   1   ROW     9   COL     7   RATE    -118.438    
 BOUNDARY    128   LAYER   1   ROW     9   COL     8   RATE    -118.438    
 BOUNDARY    129   LAYER   1   ROW     9   COL     9   RATE    -118.438    
 BOUNDARY    130   LAYER   1   ROW     9   COL    10   RATE    -118.438    
 BOUNDARY    131   LAYER   1   ROW     9   COL    11   RATE    -118.438    
 BOUNDARY    132   LAYER   1   ROW     9   COL    12   RATE    -56.6471    
 BOUNDARY    133   LAYER   1   ROW     9   COL    13   RATE    -6.98942    
 BOUNDARY    134   LAYER   1   ROW     9   COL    14   RATE     0.00000    
 BOUNDARY    135   LAYER   1   ROW     9   COL    15   RATE     0.00000    
 BOUNDARY    136   LAYER   1   ROW    10   COL     1   RATE    -112.414    
 BOUNDARY    137   LAYER   1   ROW    10   COL     2   RATE    -118.438    
 BOUNDARY    138   LAYER   1   ROW    10   COL     3   RATE    -118.438    
 BOUNDARY    139   LAYER   1   ROW    10   COL     4   RATE    -118.438    
 BOUNDARY    140   LAYER   1   ROW    10   COL     5   RATE    -118.438    
 BOUNDARY    141   LAYER   1   ROW    10   COL     6   RATE    -118.438    
 BOUNDARY    142   LAYER   1   ROW    10   COL     7   RATE    -118.438    
 BOUNDARY    143   LAYER   1   ROW    10   COL     8   RATE    -118.438    
 BOUNDARY    144   LAYER   1   ROW    10   COL     9   RATE    -118.438    
 BOUNDARY    145   LAYER   1   ROW    10   COL    10   RATE    -118.438    
 BOUNDARY    146   LAYER   1   ROW    10   COL    11   RATE    -118.438    
 BOUNDARY    147   LAYER   1   ROW    10   COL    12   RATE    -61.6693    
 BOUNDARY    148   LAYER   1   ROW    10   COL    13   RATE    -7.64627    
 BOUNDARY    149   LAYER   1   ROW    10   COL    14   RATE     0.00000    
 BOUNDARY    150   LAYER   1   ROW    10   COL    15   RATE     0.00000    

 HEAD WILL BE SAVED ON UNIT 1017 AT END OF TIME STEP    9, STRESS PERIOD    6
RIV   no.    1 value from time series:   101.00     for time:  130.0     to  131.0    
RIV   no.    2 value from time series:   101.00     for time:  130.0     to  131.0    
RIV   no.    3 value from time series:   111.50     for time:  130.0     to  131.0    
RIV   no.    4 value from time series:   111.50     for time:  130.0     to  131.0    
RIV   no.    5 value from time series:   115.10     for time:  130.0     to  131.0    
RIV   no.    6 value from time series:   115.10     for time:  130.0     to  131.0    
RIV   no.    7 value from time series:   104.00     for time:  130.0     to  131.0    
RIV   no.    8 value from time series:   104.00     for time:  130.0     to  131.0    
RIV   no.    9 value from time series:   113.50     for time:  130.0     to  131.0    
RIV   no.   10 value from time series:   113.50     for time:  130.0     to  131.0    
RIV   no.    1 value from time series:   101.00     for time:  130.0     to  131.0    
RIV   no.    2 value from time series:   101.00     for time:  130.0     to  131.0    
RIV   no.    3 value from time series:   111.50     for time:  130.0     to  131.0    
RIV   no.    4 value from time series:   111.50     for time:  130.0     to  131.0    
RIV   no.    5 value from time series:   115.10     for time:  130.0     to  131.0    
RIV   no.    6 value from time series:   115.10     for time:  130.0     to  131.0    
RIV   no.    7 value from time series:   104.00     for time:  130.0     to  131.0    
RIV   no.    8 value from time series:   104.00     for time:  130.0     to  131.0    
RIV   no.    9 value from time series:   113.50     for time:  130.0     to  131.0    
RIV   no.   10 value from time series:   113.50     for time:  130.0     to  131.0    

 OUTPUT CONTROL FOR STRESS PERIOD    6   TIME STEP   10
    PRINT HEAD
    PRINT HEAD FOR ALL LAYERS
    SAVE BUDGET
    SAVE HEAD
    SAVE HEAD FOR ALL LAYERS
 UBDSV1 SAVING          STORAGE ON UNIT   1016 AT TIME STEP     10, STRESS PERIOD      6
 UBDSV1 SAVING FLOW RIGHT FACE  ON UNIT   1016 AT TIME STEP     10, STRESS PERIOD      6
 UBDSV1 SAVING FLOW FRONT FACE  ON UNIT   1016 AT TIME STEP     10, STRESS PERIOD      6
 UBDSV1 SAVING FLOW LOWER FACE  ON UNIT   1016 AT TIME STEP     10, STRESS PERIOD      6
 UBDSV4 SAVING WELLS NEAR RIVER ON UNIT   1016 AT TIME STEP     10, STRESS PERIOD      6
 UBDSV4 SAVING RIVER            ON UNIT   1016 AT TIME STEP     10, STRESS PERIOD      6

 RIVER              PERIOD  6   STEP 10
 BOUNDARY      1   LAYER   1   ROW     1   COL    15   RATE    -5031.76    
 BOUNDARY      2   LAYER   1   ROW     2   COL    15   RATE    -6158.89      RIV2
 BOUNDARY      3   LAYER   1   ROW     3   COL    15   RATE    -2423.65      RIV3
 BOUNDARY      4   LAYER   1   ROW     4   COL    15   RATE    -3888.89    
 BOUNDARY      5   LAYER   1   ROW     5   COL    15   RATE    -2524.95    
 BOUNDARY      6   LAYER   1   ROW     6   COL    15   RATE    -1871.61    
 BOUNDARY      7   LAYER   1   ROW     7   COL    15   RATE    -6358.95      RIVX
 BOUNDARY      8   LAYER   1   ROW     8   COL    15   RATE    -6209.70      RIVX
 BOUNDARY      9   LAYER   1   ROW     9   COL    15   RATE    -2418.94      RIVX
 BOUNDARY     10   LAYER   1   ROW    10   COL    15   RATE    -3326.72    

 GHB LAKES          PERIOD  6   STEP 10
 BOUNDARY      1   LAYER   1   ROW     3   COL     1   RATE    -15006.8    
 BOUNDARY      2   LAYER   1   ROW     7   COL     1   RATE    -2269.12      GHB2_UPPER
 BOUNDARY      3   LAYER   1   ROW     7   COL     1   RATE    -13388.5      GHB2_LOWER
 UBDSV4 SAVING RECHARGE         ON UNIT   1016 AT TIME STEP     10, STRESS PERIOD      6

 RECHARGE           PERIOD  6   STEP 10
 BOUNDARY      1   LAYER   1   ROW     1   COL     1   RATE     842.500    
 BOUNDARY      2   LAYER   1   ROW     1   COL     2   RATE     842.500    
 BOUNDARY      3   LAYER   1   ROW     1   COL     3   RATE     842.500    
 BOUNDARY      4   LAYER   1   ROW     1   COL     4   RATE     842.500    
 BOUNDARY      5   LAYER   1   ROW     1   COL     5   RATE     842.500    
 BOUNDARY      6   LAYER   1   ROW     1   COL     6   RATE     842.500    
 BOUNDARY      7   LAYER   1   ROW     1   COL     7   RATE     842.500    
 BOUNDARY      8   LAYER   1   ROW     1   COL     8   RATE     842.500    
 BOUNDARY      9   LAYER   1   ROW     1   COL     9   RATE     842.500    
 BOUNDARY     10   LAYER   1   ROW     1   COL    10   RATE     842.500    
 BOUNDARY     11   LAYER   1   ROW     1   COL    11   RATE     842.500    
 BOUNDARY     12   LAYER   1   ROW     1   COL    12   RATE     842.500    
 BOUNDARY     13   LAYER   1   ROW     1   COL    13   RATE     842.500    
 BOUNDARY     14   LAYER   1   ROW     1   COL    14   RATE     842.500    
 BOUNDARY     15   LAYER   1   ROW     1   COL    15   RATE     842.500    
 BOUNDARY     16   LAYER   1   ROW     2   COL     1   RATE     842.500    
 BOUNDARY     17   LAYER   1   ROW     2   COL     2   RATE     842.500    
 BOUNDARY     18   LAYER   1   ROW     2   COL     3   RATE     842.500    
 BOUNDARY     19   LAYER   1   ROW     2   COL     4   RATE     842.500    
 BOUNDARY     20   LAYER   1   ROW     2   COL     5   RATE     842.500    
 BOUNDARY     21   LAYER   1   ROW     2   COL     6   RATE     842.500    
 BOUNDARY     22   LAYER   1   ROW     2   COL     7   RATE     842.500    
 BOUNDARY     23   LAYER   1   ROW     2   COL     8   RATE     842.500    
 BOUNDARY     24   LAYER   1   ROW     2   COL     9   RATE     842.500    
 BOUNDARY     25   LAYER   1   ROW     2   COL    10   RATE     842.500    
 BOUNDARY     26   LAYER   1   ROW     2   COL    11   RATE     842.500    
 BOUNDARY     27   LAYER   1   ROW     2   COL    12   RATE     842.500    
 BOUNDARY     28   LAYER   1   ROW     2   COL    13   RATE     842.500    
 BOUNDARY     29   LAYER   1   ROW     2   COL    14   RATE     842.500    
 BOUNDARY     30   LAYER   1   ROW     2   COL    15   RATE     842.500    
 BOUNDARY     31   LAYER   1   ROW     3   COL     1   RATE     842.500    
 BOUNDARY     32   LAYER   1   ROW     3   COL     2   RATE     842.500    
 BOUNDARY     33   LAYER   1   ROW     3   COL     3   RATE     842.500    
 BOUNDARY     34   LAYER   1   ROW     3   COL     4   RATE     842.500    
 BOUNDARY     35   LAYER   1   ROW     3   COL     5   RATE     842.500    
 BOUNDARY     36   LAYER   1   ROW     3   COL     6   RATE     842.500    
 BOUNDARY     37   LAYER   1   ROW     3   COL     7   RATE     842.500    
 BOUNDARY     38   LAYER   1   ROW     3   COL     8   RATE     842.500    
 BOUNDARY     39   LAYER   1   ROW     3   COL     9   RATE     842.500    
 BOUNDARY     40   LAYER   1   ROW     3   COL    10   RATE     842.500    
 BOUNDARY     41   LAYER   1   ROW     3   COL    11   RATE     842.500    
 BOUNDARY     42   LAYER   1   ROW     3   COL    12   RATE     842.500    
 BOUNDARY     43   LAYER   1   ROW     3   COL    13   RATE     842.500    
 BOUNDARY     44   LAYER   1   ROW     3   COL    14   RATE     842.500    
 BOUNDARY     45   LAYER   1   ROW     3   COL    15   RATE     842.500    
 BOUNDARY     46   LAYER   1   ROW     4   COL     1   RATE     842.500    
 BOUNDARY     47   LAYER   1   ROW     4   COL     2   RATE     842.500    
 BOUNDARY     48   LAYER   1   ROW     4   COL     3   RATE     842.500    
 BOUNDARY     49   LAYER   1   ROW     4   COL     4   RATE     842.500    
 BOUNDARY     50   LAYER   1   ROW     4   COL     5   RATE     842.500    
 BOUNDARY     51   LAYER   1   ROW     4   COL     6   RATE     842.500    
 BOUNDARY     52   LAYER   1   ROW     4   COL     7   RATE     842.500    
 BOUNDARY     53   LAYER   1   ROW     4   COL     8   RATE     842.500    
 BOUNDARY     54   LAYER   1   ROW     4   COL     9   RATE     842.500    
 BOUNDARY     55   LAYER   1   ROW     4   COL    10   RATE     842.500    
 BOUNDARY     56   LAYER   1   ROW     4   COL    11   RATE     842.500    
 BOUNDARY     57   LAYER   1   ROW     4   COL    12   RATE     842.500    
 BOUNDARY     58   LAYER   1   ROW     4   COL    13   RATE     842.500    
 BOUNDARY     59   LAYER   1   ROW     4   COL    14   RATE     842.500    
 BOUNDARY     60   LAYER   1   ROW     4   COL    15   RATE     842.500    
 BOUNDARY     61   LAYER   1   ROW     5   COL     1   RATE     842.500    
 BOUNDARY     62   LAYER   1   ROW     5   COL     2   RATE     842.500    
 BOUNDARY     63   LAYER   1   ROW     5   COL     3   RATE     842.500    
 BOUNDARY     64   LAYER   1   ROW     5   COL     4   RATE     842.500    
 BOUNDARY     65   LAYER   1   ROW     5   COL     5   RATE     842.500    
 BOUNDARY     66   LAYER   1   ROW     5   COL     6   RATE     842.500    
 BOUNDARY     67   LAYER   1   ROW     5   COL     7   RATE     842.500    
 BOUNDARY     68   LAYER   1   ROW     5   COL     8   RATE     842.500    
 BOUNDARY     69   LAYER   1   ROW     5   COL     9   RATE     842.500    
 BOUNDARY     70   LAYER   1   ROW     5   COL    10   RATE     842.500    
 BOUNDARY     71   LAYER   1   ROW     5   COL    11   RATE     842.500    
 BOUNDARY     72   LAYER   1   ROW     5   COL    12   RATE     842.500    
 BOUNDARY     73   LAYER   1   ROW     5   COL    13   RATE     842.500    
 BOUNDARY     74   LAYER   1   ROW     5   COL    14   RATE     842.500    
 BOUNDARY     75   LAYER   1   ROW     5   COL    15   RATE     842.500    
 BOUNDARY     76   LAYER   1   ROW     6   COL     1   RATE     842.500    
 BOUNDARY     77   LAYER   1   ROW     6   COL     2   RATE     842.500    
 BOUNDARY     78   LAYER   1   ROW     6   COL     3   RATE     842.500    
 BOUNDARY     79   LAYER   1   ROW     6   COL     4   RATE     842.500    
 BOUNDARY     80   LAYER   1   ROW     6   COL     5   RATE     842.500    
 BOUNDARY     81   LAYER   1   ROW     6   COL     6   RATE     842.500    
 BOUNDARY     82   LAYER   1   ROW     6   COL     7   RATE     842.500    
 BOUNDARY     83   LAYER   1   ROW     6   COL     8   RATE     842.500    
 BOUNDARY     84   LAYER   1   ROW     6   COL     9   RATE     842.500    
 BOUNDARY     85   LAYER   1   ROW     6   COL    10   RATE     842.500    
 BOUNDARY     86   LAYER   1   ROW     6   COL    11   RATE     842.500    
 BOUNDARY     87   LAYER   1   ROW     6   COL    12   RATE     842.500    
 BOUNDARY     88   LAYER   1   ROW     6   COL    13   RATE     842.500    
 BOUNDARY     89   LAYER   1   ROW     6   COL    14   RATE     842.500    
 BOUNDARY     90   LAYER   1   ROW     6   COL    15   RATE     842.500    
 BOUNDARY     91   LAYER   1   ROW     7   COL     1   RATE     842.500    
 BOUNDARY     92   LAYER   1   ROW     7   COL     2   RATE     842.500    
 BOUNDARY     93   LAYER   1   ROW     7   COL     3   RATE     842.500    
 BOUNDARY     94   LAYER   1   ROW     7   COL     4   RATE     842.500    
 BOUNDARY     95   LAYER   1   ROW     7   COL     5   RATE     842.500    
 BOUNDARY     96   LAYER   1   ROW     7   COL     6   RATE     842.500    
 BOUNDARY     97   LAYER   1   ROW     7   COL     7   RATE     842.500    
 BOUNDARY     98   LAYER   1   ROW     7   COL     8   RATE     842.500    
 BOUNDARY     99   LAYER   1   ROW     7   COL     9   RATE     842.500    
 BOUNDARY    100   LAYER   1   ROW     7   COL    10   RATE     842.500    
 BOUNDARY    101   LAYER   1   ROW     7   COL    11   RATE     842.500    
 BOUNDARY    102   LAYER   1   ROW     7   COL    12   RATE     842.500    
 BOUNDARY    103   LAYER   1   ROW     7   COL    13   RATE     842.500    
 BOUNDARY    104   LAYER   1   ROW     7   COL    14   RATE     842.500    
 BOUNDARY    105   LAYER   1   ROW     7   COL    15   RATE     842.500    
 BOUNDARY    106   LAYER   1   ROW     8   COL     1   RATE     842.500    
 BOUNDARY    107   LAYER   1   ROW     8   COL     2   RATE     842.500    
 BOUNDARY    108   LAYER   1   ROW     8   COL     3   RATE     842.500    
 BOUNDARY    109   LAYER   1   ROW     8   COL     4   RATE     842.500    
 BOUNDARY    110   LAYER   1   ROW     8   COL     5   RATE     842.500    
 BOUNDARY    111   LAYER   1   ROW     8   COL     6   RATE     842.500    
 BOUNDARY    112   LAYER   1   ROW     8   COL     7   RATE     842.500    
 BOUNDARY    113   LAYER   1   ROW     8   COL     8   RATE     842.500    
 BOUNDARY    114   LAYER   1   ROW     8   COL     9   RATE     842.500    
 BOUNDARY    115   LAYER   1   ROW     8   COL    10   RATE     842.500    
 BOUNDARY    116   LAYER   1   ROW     8   COL    11   RATE     842.500    
 BOUNDARY    117   LAYER   1   ROW     8   COL    12   RATE     842.500    
 BOUNDARY    118   LAYER   1   ROW     8   COL    13   RATE     842.500    
 BOUNDARY    119   LAYER   1   ROW     8   COL    14   RATE     842.500    
 BOUNDARY    120   LAYER   1   ROW     8   COL    15   RATE     842.500    
 BOUNDARY    121   LAYER   1   ROW     9   COL     1   RATE     842.500    
 BOUNDARY    122   LAYER   1   ROW     9   COL     2   RATE     842.500    
 BOUNDARY    123   LAYER   1   ROW     9   COL     3   RATE     842.500    
 BOUNDARY    124   LAYER   1   ROW     9   COL     4   RATE     842.500    
 BOUNDARY    125   LAYER   1   ROW     9   COL     5   RATE     842.500    
 BOUNDARY    126   LAYER   1   ROW     9   COL     6   RATE     842.500    
 BOUNDARY    127   LAYER   1   ROW     9   COL     7   RATE     842.500    
 BOUNDARY    128   LAYER   1   ROW     9   COL     8   RATE     842.500    
 BOUNDARY    129   LAYER   1   ROW     9   COL     9   RATE     842.500    
 BOUNDARY    130   LAYER   1   ROW     9   COL    10   RATE     842.500    
 BOUNDARY    131   LAYER   1   ROW     9   COL    11   RATE     842.500    
 BOUNDARY    132   LAYER   1   ROW     9   COL    12   RATE     842.500    
 BOUNDARY    133   LAYER   1   ROW     9   COL    13   RATE     842.500    
 BOUNDARY    134   LAYER   1   ROW     9   COL    14   RATE     842.500    
 BOUNDARY    135   LAYER   1   ROW     9   COL    15   RATE     842.500    
 BOUNDARY    136   LAYER   1   ROW    10   COL     1   RATE     842.500    
 BOUNDARY    137   LAYER   1   ROW    10   COL     2   RATE     842.500    
 BOUNDARY    138   LAYER   1   ROW    10   COL     3   RATE     842.500    
 BOUNDARY    139   LAYER   1   ROW    10   COL     4   RATE     842.500    
 BOUNDARY    140   LAYER   1   ROW    10   COL     5   RATE     842.500    
 BOUNDARY    141   LAYER   1   ROW    10   COL     6   RATE     842.500    
 BOUNDARY    142   LAYER   1   ROW    10   COL     7   RATE     842.500    
 BOUNDARY    143   LAYER   1   ROW    10   COL     8   RATE     842.500    
 BOUNDARY    144   LAYER   1   ROW    10   COL     9   RATE     842.500    
 BOUNDARY    145   LAYER   1   ROW    10   COL    10   RATE     842.500    
 BOUNDARY    146   LAYER   1   ROW    10   COL    11   RATE     842.500    
 BOUNDARY    147   LAYER   1   ROW    10   COL    12   RATE     842.500    
 BOUNDARY    148   LAYER   1   ROW    10   COL    13   RATE     842.500    
 BOUNDARY    149   LAYER   1   ROW    10   COL    14   RATE     842.500    
 BOUNDARY    150   LAYER   1   ROW    10   COL    15   RATE     842.500    
 UBDSV4 SAVING ET SEGS          ON UNIT   1016 AT TIME STEP     10, STRESS PERIOD      6

 ET SEGS            PERIOD  6   STEP 10
 BOUNDARY      1   LAYER   1   ROW     1   COL     1   RATE    -4.35467    
 BOUNDARY      2   LAYER   1   ROW     1   COL     2   RATE    -14.0221    
 BOUNDARY      3   LAYER   1   ROW     1   COL     3   RATE    -90.2024    
 BOUNDARY      4   LAYER   1   ROW     1   COL     4   RATE    -119.062    
 BOUNDARY      5   LAYER   1   ROW     1   COL     5   RATE    -119.062    
 BOUNDARY      6   LAYER   1   ROW     1   COL     6   RATE    -119.062    
 BOUNDARY      7   LAYER   1   ROW     1   COL     7   RATE    -119.062    
 BOUNDARY      8   LAYER   1   ROW     1   COL     8   RATE    -119.062    
 BOUNDARY      9   LAYER   1   ROW     1   COL     9   RATE    -119.062    
 BOUNDARY     10   LAYER   1   ROW     1   COL    10   RATE    -119.062    
 BOUNDARY     11   LAYER   1   ROW     1   COL    11   RATE    -119.062    
 BOUNDARY     12   LAYER   1   ROW     1   COL    12   RATE    -26.2932    
 BOUNDARY     13   LAYER   1   ROW     1   COL    13   RATE   -0.797196    
 BOUNDARY     14   LAYER   1   ROW     1   COL    14   RATE     0.00000    
 BOUNDARY     15   LAYER   1   ROW     1   COL    15   RATE     0.00000    
 BOUNDARY     16   LAYER   1   ROW     2   COL     1   RATE     0.00000    
 BOUNDARY     17   LAYER   1   ROW     2   COL     2   RATE    -7.12576    
 BOUNDARY     18   LAYER   1   ROW     2   COL     3   RATE    -56.8159    
 BOUNDARY     19   LAYER   1   ROW     2   COL     4   RATE    -119.062    
 BOUNDARY     20   LAYER   1   ROW     2   COL     5   RATE    -119.062    
 BOUNDARY     21   LAYER   1   ROW     2   COL     6   RATE    -119.062    
 BOUNDARY     22   LAYER   1   ROW     2   COL     7   RATE    -119.062    
 BOUNDARY     23   LAYER   1   ROW     2   COL     8   RATE    -119.062    
 BOUNDARY     24   LAYER   1   ROW     2   COL     9   RATE    -119.062    
 BOUNDARY     25   LAYER   1   ROW     2   COL    10   RATE    -119.062    
 BOUNDARY     26   LAYER   1   ROW     2   COL    11   RATE    -119.062    
 BOUNDARY     27   LAYER   1   ROW     2   COL    12   RATE    -28.3691    
 BOUNDARY     28   LAYER   1   ROW     2   COL    13   RATE    -1.97123    
 BOUNDARY     29   LAYER   1   ROW     2   COL    14   RATE     0.00000    
 BOUNDARY     30   LAYER   1   ROW     2   COL    15   RATE     0.00000    
 BOUNDARY     31   LAYER   1   ROW     3   COL     1   RATE     0.00000    
 BOUNDARY     32   LAYER   1   ROW     3   COL     2   RATE     0.00000    
 BOUNDARY     33   LAYER   1   ROW     3   COL     3   RATE    -32.6311    
 BOUNDARY     34   LAYER   1   ROW     3   COL     4   RATE    -119.062    
 BOUNDARY     35   LAYER   1   ROW     3   COL     5   RATE    -119.062    
 BOUNDARY     36   LAYER   1   ROW     3   COL     6   RATE    -119.062    
 BOUNDARY     37   LAYER   1   ROW     3   COL     7   RATE    -119.062    
 BOUNDARY     38   LAYER   1   ROW     3   COL     8   RATE    -119.062    
 BOUNDARY     39   LAYER   1   ROW     3   COL     9   RATE    -119.062    
 BOUNDARY     40   LAYER   1   ROW     3   COL    10   RATE    -119.062    
 BOUNDARY     41   LAYER   1   ROW     3   COL    11   RATE    -119.062    
 BOUNDARY     42   LAYER   1   ROW     3   COL    12   RATE    -31.8648    
 BOUNDARY     43   LAYER   1   ROW     3   COL    13   RATE    -4.10807    
 BOUNDARY     44   LAYER   1   ROW     3   COL    14   RATE     0.00000    
 BOUNDARY     45   LAYER   1   ROW     3   COL    15   RATE     0.00000    
 BOUNDARY     46   LAYER   1   ROW     4   COL     1   RATE     0.00000    
 BOUNDARY     47   LAYER   1   ROW     4   COL     2   RATE    -5.32489    
 BOUNDARY     48   LAYER   1   ROW     4   COL     3   RATE    -43.8661    
 BOUNDARY     49   LAYER   1   ROW     4   COL     4   RATE    -119.062    
 BOUNDARY     50   LAYER   1   ROW     4   COL     5   RATE    -119.062    
 BOUNDARY     51   LAYER   1   ROW     4   COL     6   RATE    -119.062    
 BOUNDARY     52   LAYER   1   ROW     4   COL     7   RATE    -119.062    
 BOUNDARY     53   LAYER   1   ROW     4   COL     8   RATE    -119.062    
 BOUNDARY     54   LAYER   1   ROW     4   COL     9   RATE    -119.062    
 BOUNDARY     55   LAYER   1   ROW     4   COL    10   RATE    -119.062    
 BOUNDARY     56   LAYER   1   ROW     4   COL    11   RATE    -119.062    
 BOUNDARY     57   LAYER   1   ROW     4   COL    12   RATE    -35.1727    
 BOUNDARY     58   LAYER   1   ROW     4   COL    13   RATE    -5.83135    
 BOUNDARY     59   LAYER   1   ROW     4   COL    14   RATE     0.00000    
 BOUNDARY     60   LAYER   1   ROW     4   COL    15   RATE     0.00000    
 BOUNDARY     61   LAYER   1   ROW     5   COL     1   RATE     0.00000    
 BOUNDARY     62   LAYER   1   ROW     5   COL     2   RATE    -8.88962    
 BOUNDARY     63   LAYER   1   ROW     5   COL     3   RATE    -68.3821    
 BOUNDARY     64   LAYER   1   ROW     5   COL     4   RATE    -119.062    
 BOUNDARY     65   LAYER   1   ROW     5   COL     5   RATE    -119.062    
 BOUNDARY     66   LAYER   1   ROW     5   COL     6   RATE    -119.062    
 BOUNDARY     67   LAYER   1   ROW     5   COL     7   RATE    -119.062    
 BOUNDARY     68   LAYER   1   ROW     5   COL     8   RATE    -119.062    
 BOUNDARY     69   LAYER   1   ROW     5   COL     9   RATE    -119.062    
 BOUNDARY     70   LAYER   1   ROW     5   COL    10   RATE    -119.062    
 BOUNDARY     71   LAYER   1   ROW     5   COL    11   RATE    -119.062    
 BOUNDARY     72   LAYER   1   ROW     5   COL    12   RATE    -44.6632    
 BOUNDARY     73   LAYER   1   ROW     5   COL    13   RATE    -6.87494    
 BOUNDARY     74   LAYER   1   ROW     5   COL    14   RATE     0.00000    
 BOUNDARY     75   LAYER   1   ROW     5   COL    15   RATE     0.00000    
 BOUNDARY     76   LAYER   1   ROW     6   COL     1   RATE     0.00000    
 BOUNDARY     77   LAYER   1   ROW     6   COL     2   RATE    -7.14582    
 BOUNDARY     78   LAYER   1   ROW     6   COL     3   RATE    -72.7355    
 BOUNDARY     79   LAYER   1   ROW     6   COL     4   RATE    -119.062    
 BOUNDARY     80   LAYER   1   ROW     6   COL     5   RATE    -119.062    
 BOUNDARY     81   LAYER   1   ROW     6   COL     6   RATE    -119.062    
 BOUNDARY     82   LAYER   1   ROW     6   COL     7   RATE    -119.062    
 BOUNDARY     83   LAYER   1   ROW     6   COL     8   RATE    -119.062    
 BOUNDARY     84   LAYER   1   ROW     6   COL     9   RATE    -119.062    
 BOUNDARY     85   LAYER   1   ROW     6   COL    10   RATE    -119.062    
 BOUNDARY     86   LAYER   1   ROW     6   COL    11   RATE    -119.062    
 BOUNDARY     87   LAYER   1   ROW     6   COL    12   RATE    -48.5915    
 BOUNDARY     88   LAYER   1   ROW     6   COL    13   RATE    -6.81397    
 BOUNDARY     89   LAYER   1   ROW     6   COL    14   RATE     0.00000    
 BOUNDARY     90   LAYER   1   ROW     6   COL    15   RATE     0.00000    
 BOUNDARY     91   LAYER   1   ROW     7   COL     1   RATE     0.00000    
 BOUNDARY     92   LAYER   1   ROW     7   COL     2   RATE    -2.87319    
 BOUNDARY     93   LAYER   1   ROW     7   COL     3   RATE    -80.7436    
 BOUNDARY     94   LAYER   1   ROW     7   COL     4   RATE    -119.062    
 BOUNDARY     95   LAYER   1   ROW     7   COL     5   RATE    -119.062    
 BOUNDARY     96   LAYER   1   ROW     7   COL     6   RATE    -119.062    
 BOUNDARY     97   LAYER   1   ROW     7   COL     7   RATE    -119.062    
 BOUNDARY     98   LAYER   1   ROW     7   COL     8   RATE    -119.062    
 BOUNDARY     99   LAYER   1   ROW     7   COL     9   RATE    -119.062    
 BOUNDARY    100   LAYER   1   ROW     7   COL    10   RATE    -119.062    
 BOUNDARY    101   LAYER   1   ROW     7   COL    11   RATE    -119.062    
 BOUNDARY    102   LAYER   1   ROW     7   COL    12   RATE    -47.7449    
 BOUNDARY    103   LAYER   1   ROW     7   COL    13   RATE    -5.96792    
 BOUNDARY    104   LAYER   1   ROW     7   COL    14   RATE     0.00000    
 BOUNDARY    105   LAYER   1   ROW     7   COL    15   RATE     0.00000    
 BOUNDARY    106   LAYER   1   ROW     8   COL     1   RATE     0.00000    
 BOUNDARY    107   LAYER   1   ROW     8   COL     2   RATE    -19.3638    
 BOUNDARY    108   LAYER   1   ROW     8   COL     3   RATE    -119.062    
 BOUNDARY    109   LAYER   1   ROW     8   COL     4   RATE    -119.062    
 BOUNDARY    110   LAYER   1   ROW     8   COL     5   RATE    -119.062    
 BOUNDARY    111   LAYER   1   ROW     8   COL     6   RATE    -119.062    
 BOUNDARY    112   LAYER   1   ROW     8   COL     7   RATE    -119.062    
 BOUNDARY    113   LAYER   1   ROW     8   COL     8   RATE    -119.062    
 BOUNDARY    114   LAYER   1   ROW     8   COL     9   RATE    -119.062    
 BOUNDARY    115   LAYER   1   ROW     8   COL    10   RATE    -119.062    
 BOUNDARY    116   LAYER   1   ROW     8   COL    11   RATE    -119.062    
 BOUNDARY    117   LAYER   1   ROW     8   COL    12   RATE    -50.4100    
 BOUNDARY    118   LAYER   1   ROW     8   COL    13   RATE    -6.01979    
 BOUNDARY    119   LAYER   1   ROW     8   COL    14   RATE     0.00000    
 BOUNDARY    120   LAYER   1   ROW     8   COL    15   RATE     0.00000    
 BOUNDARY    121   LAYER   1   ROW     9   COL     1   RATE    -28.4484    
 BOUNDARY    122   LAYER   1   ROW     9   COL     2   RATE    -103.883    
 BOUNDARY    123   LAYER   1   ROW     9   COL     3   RATE    -119.062    
 BOUNDARY    124   LAYER   1   ROW     9   COL     4   RATE    -119.062    
 BOUNDARY    125   LAYER   1   ROW     9   COL     5   RATE    -119.062    
 BOUNDARY    126   LAYER   1   ROW     9   COL     6   RATE    -119.062    
 BOUNDARY    127   LAYER   1   ROW     9   COL     7   RATE    -119.062    
 BOUNDARY    128   LAYER   1   ROW     9   COL     8   RATE    -119.062    
 BOUNDARY    129   LAYER   1   ROW     9   COL     9   RATE    -119.062    
 BOUNDARY    130   LAYER   1   ROW     9   COL    10   RATE    -119.062    
 BOUNDARY    131   LAYER   1   ROW     9   COL    11   RATE    -119.062    
 BOUNDARY    132   LAYER   1   ROW     9   COL    12   RATE    -57.4693    
 BOUNDARY    133   LAYER   1   ROW     9   COL    13   RATE    -7.05654    
 BOUNDARY    134   LAYER   1   ROW     9   COL    14   RATE     0.00000    
 BOUNDARY    135   LAYER   1   ROW     9   COL    15   RATE     0.00000    
 BOUNDARY    136   LAYER   1   ROW    10   COL     1   RATE    -113.501    
 BOUNDARY    137   LAYER   1   ROW    10   COL     2   RATE    -119.062    
 BOUNDARY    138   LAYER   1   ROW    10   COL     3   RATE    -119.062    
 BOUNDARY    139   LAYER   1   ROW    10   COL     4   RATE    -119.062    
 BOUNDARY    140   LAYER   1   ROW    10   COL     5   RATE    -119.062    
 BOUNDARY    141   LAYER   1   ROW    10   COL     6   RATE    -119.062    
 BOUNDARY    142   LAYER   1   ROW    10   COL     7   RATE    -119.062    
 BOUNDARY    143   LAYER   1   ROW    10   COL     8   RATE    -119.062    
 BOUNDARY    144   LAYER   1   ROW    10   COL     9   RATE    -119.062    
 BOUNDARY    145   LAYER   1   ROW    10   COL    10   RATE    -119.062    
 BOUNDARY    146   LAYER   1   ROW    10   COL    11   RATE    -119.062    
 BOUNDARY    147   LAYER   1   ROW    10   COL    12   RATE    -62.5184    
 BOUNDARY    148   LAYER   1   ROW    10   COL    13   RATE    -7.71704    
 BOUNDARY    149   LAYER   1   ROW    10   COL    14   RATE     0.00000    
 BOUNDARY    150   LAYER   1   ROW    10   COL    15   RATE     0.00000    
1
  HEAD             IN LAYER   1 AT END OF TIME STEP  10 IN STRESS PERIOD    6
  ---------------------------------------------------------------------------

           1          2          3          4          5          6          7          8
 ........................................................................................
   1   131.82873  135.26656  139.30744  142.81845  145.49194  147.23157  148.02535  147.87145
   2   126.47632  132.99245  138.50627  142.54841  145.41732  147.22964  148.05284  147.91535
   3   109.98456  129.51685  137.61100  142.30792  145.38172  147.26711  148.12074  148.00268
   4   125.21447  132.23617  138.19551  142.49898  145.50674  147.38473  148.24018  148.12909
   5   129.02069  133.73317  138.78382  142.82079  145.73719  147.57424  148.40686  148.28482
   6   125.93238  133.00087  138.88829  143.11588  146.02784  147.81987  148.61029  148.45851
   7   111.61734  131.20659  139.08046  143.56678  146.42098  148.12152  148.83976  148.63889
   8   129.87618  135.93954  140.88429  144.47737  146.95621  148.46449  149.07450  148.81033
   9   137.08405  139.63575  142.70420  145.41770  147.47497  148.77299  149.27265  148.94842
  10   139.86655  141.45171  143.73216  145.97955  147.78731  148.95545  149.38680  149.02622
1
  HEAD             IN LAYER   1 AT END OF TIME STEP  10 IN STRESS PERIOD    6
  ---------------------------------------------------------------------------

           9         10         11         12         13         14         15
 .............................................................................
   1   146.75144  144.61532  141.36334  136.81252  130.33478  120.93467  106.02674
   2   146.81273  144.70594  141.51095  137.07406  130.82781  121.83713  107.14660
   3   146.92471  144.86304  141.75889  137.51447  131.72517  123.98622  113.91640
   4   147.06894  145.04630  142.02103  137.93121  132.44886  125.23098  115.37340
   5   147.22621  145.22063  142.23367  138.21464  132.88711  126.06097  117.61239
   6   147.38244  145.36741  142.36855  138.30891  132.86151  125.73639  116.96045
   7   147.53040  145.48943  142.45162  138.28859  132.50621  124.17193  110.31475
   8   147.66404  145.59910  142.54181  138.35255  132.52800  124.11022  110.16042
   9   147.77002  145.69237  142.64579  138.52195  132.96338  125.53861  115.89736
  10   147.82962  145.74747  142.71471  138.64311  133.24075  126.15516  116.79378
1
  HEAD             IN LAYER   2 AT END OF TIME STEP  10 IN STRESS PERIOD    6
  ---------------------------------------------------------------------------

           1          2          3          4          5          6          7          8
 ........................................................................................
   1   132.71476  134.99030  138.16129  141.23317  143.71093  145.37502  146.13550  145.95188
   2   130.91135  133.98629  137.71728  141.06500  143.66472  145.38107  146.16543  145.99679
   3   128.27871  132.85265  137.29241  140.93409  143.65675  145.42594  146.23564  146.08531
   4   130.24624  133.55107  137.53817  141.06801  143.77254  145.54199  146.35494  146.21235
   5   131.45583  134.25795  137.94794  141.34833  143.99252  145.72796  146.52030  146.36828
   6   131.11639  134.37766  138.27092  141.69184  144.29109  145.97304  146.72247  146.54200
   7   130.14754  134.59827  138.80721  142.19724  144.68887  146.27225  146.94990  146.72209
   8   134.03604  136.80682  140.08352  142.97752  145.18717  146.60343  147.18066  146.89266
   9   137.28197  138.99805  141.40507  143.75899  145.65748  146.89743  147.37454  147.02975
  10   138.96054  140.23523  142.19369  144.23370  145.94111  147.07111  147.48620  147.10698
1
  HEAD             IN LAYER   2 AT END OF TIME STEP  10 IN STRESS PERIOD    6
  ---------------------------------------------------------------------------

           9         10         11         12         13         14         15
 .............................................................................
   1   144.79430  142.62702  139.40631  135.09609  129.72203  123.67105  118.36872
   2   144.85612  142.71687  139.54755  135.33121  130.12025  124.31481  119.25701
   3   144.96892  142.87280  139.78429  135.71902  130.78681  125.47398  121.16234
   4   145.11434  143.05651  140.04067  136.10543  131.39240  126.39996  122.39856
   5   145.27331  143.23393  140.25637  136.38603  131.77663  126.94344  123.16548
   6   145.43180  143.38685  140.40623  136.52055  131.85679  126.89688  122.95045
   7   145.58202  143.51605  140.51008  136.56807  131.75807  126.44105  121.80347
   8   145.71693  143.62973  140.60931  136.65244  131.81971  126.46444  121.78290
   9   145.82315  143.72319  140.70895  136.79179  132.07729  127.01549  122.91179
  10   145.88267  143.77762  140.77325  136.89262  132.26681  127.37126  123.46402

 HEAD WILL BE SAVED ON UNIT 1017 AT END OF TIME STEP   10, STRESS PERIOD    6



         TIME SUMMARY AT END OF TIME STEP   10 IN STRESS PERIOD    6
                    SECONDS     MINUTES      HOURS       DAYS        YEARS
                    -----------------------------------------------------------
   TIME STEP LENGTH  86400.      1440.0      24.000     1.00000     2.73785E-03
 STRESS PERIOD TIME 8.64000E+05  14400.      240.00     10.0000     2.73785E-02
         TOTAL TIME 1.13184E+07 1.88640E+05  3144.0      131.00     0.35866    
RIV   no.    1 value from time series:   101.00     for time:  131.0     to  132.0    
RIV   no.    2 value from time series:   101.00     for time:  131.0     to  132.0    
RIV   no.    3 value from time series:   111.50     for time:  131.0     to  132.0    
RIV   no.    4 value from time series:   111.50     for time:  131.0     to  132.0    
RIV   no.    5 value from time series:   115.10     for time:  131.0     to  132.0    
RIV   no.    6 value from time series:   115.10     for time:  131.0     to  132.0    
RIV   no.    7 value from time series:   104.00     for time:  131.0     to  132.0    
RIV   no.    8 value from time series:   104.00     for time:  131.0     to  132.0    
RIV   no.    9 value from time series:   113.50     for time:  131.0     to  132.0    
RIV   no.   10 value from time series:   113.50     for time:  131.0     to  132.0    
RIV   no.    1 value from time series:   101.00     for time:  131.0     to  132.0    
RIV   no.    2 value from time series:   101.00     for time:  131.0     to  132.0    
RIV   no.    3 value from time series:   111.50     for time:  131.0     to  132.0    
RIV   no.    4 value from time series:   111.50     for time:  131.0     to  132.0    
RIV   no.    5 value from time series:   115.10     for time:  131.0     to  132.0    
RIV   no.    6 value from time series:   115.10     for time:  131.0     to  132.0    
RIV   no.    7 value from time series:   104.00     for time:  131.0     to  132.0    
RIV   no.    8 value from time series:   104.00     for time:  131.0     to  132.0    
RIV   no.    9 value from time series:   113.50     for time:  131.0     to  132.0    
RIV   no.   10 value from time series:   113.50     for time:  131.0     to  132.0    

 NO OUTPUT CONTROL FOR STRESS PERIOD    6   TIME STEP   11
RIV   no.    1 value from time series:   101.00     for time:  132.0     to  133.0    
RIV   no.    2 value from time series:   101.00     for time:  132.0     to  133.0    
RIV   no.    3 value from time series:   111.50     for time:  132.0     to  133.0    
RIV   no.    4 value from time series:   111.50     for time:  132.0     to  133.0    
RIV   no.    5 value from time series:   115.10     for time:  132.0     to  133.0    
RIV   no.    6 value from time series:   115.10     for time:  132.0     to  133.0    
RIV   no.    7 value from time series:   104.00     for time:  132.0     to  133.0    
RIV   no.    8 value from time series:   104.00     for time:  132.0     to  133.0    
RIV   no.    9 value from time series:   113.50     for time:  132.0     to  133.0    
RIV   no.   10 value from time series:   113.50     for time:  132.0     to  133.0    
RIV   no.    1 value from time series:   101.00     for time:  132.0     to  133.0    
RIV   no.    2 value from time series:   101.00     for time:  132.0     to  133.0    
RIV   no.    3 value from time series:   111.50     for time:  132.0     to  133.0    
RIV   no.    4 value from time series:   111.50     for time:  132.0     to  133.0    
RIV   no.    5 value from time series:   115.10     for time:  132.0     to  133.0    
RIV   no.    6 value from time series:   115.10     for time:  132.0     to  133.0    
RIV   no.    7 value from time series:   104.00     for time:  132.0     to  133.0    
RIV   no.    8 value from time series:   104.00     for time:  132.0     to  133.0    
RIV   no.    9 value from time series:   113.50     for time:  132.0     to  133.0    
RIV   no.   10 value from time series:   113.50     for time:  132.0     to  133.0    

 NO OUTPUT CONTROL FOR STRESS PERIOD    6   TIME STEP   12
RIV   no.    1 value from time series:   101.00     for time:  133.0     to  134.0    
RIV   no.    2 value from time series:   101.00     for time:  133.0     to  134.0    
RIV   no.    3 value from time series:   111.50     for time:  133.0     to  134.0    
RIV   no.    4 value from time series:   111.50     for time:  133.0     to  134.0    
RIV   no.    5 value from time series:   115.10     for time:  133.0     to  134.0    
RIV   no.    6 value from time series:   115.10     for time:  133.0     to  134.0    
RIV   no.    7 value from time series:   104.00     for time:  133.0     to  134.0    
RIV   no.    8 value from time series:   104.00     for time:  133.0     to  134.0    
RIV   no.    9 value from time series:   113.50     for time:  133.0     to  134.0    
RIV   no.   10 value from time series:   113.50     for time:  133.0     to  134.0    
RIV   no.    1 value from time series:   101.00     for time:  133.0     to  134.0    
RIV   no.    2 value from time series:   101.00     for time:  133.0     to  134.0    
RIV   no.    3 value from time series:   111.50     for time:  133.0     to  134.0    
RIV   no.    4 value from time series:   111.50     for time:  133.0     to  134.0    
RIV   no.    5 value from time series:   115.10     for time:  133.0     to  134.0    
RIV   no.    6 value from time series:   115.10     for time:  133.0     to  134.0    
RIV   no.    7 value from time series:   104.00     for time:  133.0     to  134.0    
RIV   no.    8 value from time series:   104.00     for time:  133.0     to  134.0    
RIV   no.    9 value from time series:   113.50     for time:  133.0     to  134.0    
RIV   no.   10 value from time series:   113.50     for time:  133.0     to  134.0    

 NO OUTPUT CONTROL FOR STRESS PERIOD    6   TIME STEP   13
RIV   no.    1 value from time series:   101.00     for time:  134.0     to  135.0    
RIV   no.    2 value from time series:   101.00     for time:  134.0     to  135.0    
RIV   no.    3 value from time series:   111.50     for time:  134.0     to  135.0    
RIV   no.    4 value from time series:   111.50     for time:  134.0     to  135.0    
RIV   no.    5 value from time series:   115.10     for time:  134.0     to  135.0    
RIV   no.    6 value from time series:   115.10     for time:  134.0     to  135.0    
RIV   no.    7 value from time series:   104.00     for time:  134.0     to  135.0    
RIV   no.    8 value from time series:   104.00     for time:  134.0     to  135.0    
RIV   no.    9 value from time series:   113.50     for time:  134.0     to  135.0    
RIV   no.   10 value from time series:   113.50     for time:  134.0     to  135.0    
RIV   no.    1 value from time series:   101.00     for time:  134.0     to  135.0    
RIV   no.    2 value from time series:   101.00     for time:  134.0     to  135.0    
RIV   no.    3 value from time series:   111.50     for time:  134.0     to  135.0    
RIV   no.    4 value from time series:   111.50     for time:  134.0     to  135.0    
RIV   no.    5 value from time series:   115.10     for time:  134.0     to  135.0    
RIV   no.    6 value from time series:   115.10     for time:  134.0     to  135.0    
RIV   no.    7 value from time series:   104.00     for time:  134.0     to  135.0    
RIV   no.    8 value from time series:   104.00     for time:  134.0     to  135.0    
RIV   no.    9 value from time series:   113.50     for time:  134.0     to  135.0    
RIV   no.   10 value from time series:   113.50     for time:  134.0     to  135.0    

 NO OUTPUT CONTROL FOR STRESS PERIOD    6   TIME STEP   14
RIV   no.    1 value from time series:   101.00     for time:  135.0     to  136.0    
RIV   no.    2 value from time series:   101.00     for time:  135.0     to  136.0    
RIV   no.    3 value from time series:   111.50     for time:  135.0     to  136.0    
RIV   no.    4 value from time series:   111.50     for time:  135.0     to  136.0    
RIV   no.    5 value from time series:   115.10     for time:  135.0     to  136.0    
RIV   no.    6 value from time series:   115.10     for time:  135.0     to  136.0    
RIV   no.    7 value from time series:   104.00     for time:  135.0     to  136.0    
RIV   no.    8 value from time series:   104.00     for time:  135.0     to  136.0    
RIV   no.    9 value from time series:   113.50     for time:  135.0     to  136.0    
RIV   no.   10 value from time series:   113.50     for time:  135.0     to  136.0    
RIV   no.    1 value from time series:   101.00     for time:  135.0     to  136.0    
RIV   no.    2 value from time series:   101.00     for time:  135.0     to  136.0    
RIV   no.    3 value from time series:   111.50     for time:  135.0     to  136.0    
RIV   no.    4 value from time series:   111.50     for time:  135.0     to  136.0    
RIV   no.    5 value from time series:   115.10     for time:  135.0     to  136.0    
RIV   no.    6 value from time series:   115.10     for time:  135.0     to  136.0    
RIV   no.    7 value from time series:   104.00     for time:  135.0     to  136.0    
RIV   no.    8 value from time series:   104.00     for time:  135.0     to  136.0    
RIV   no.    9 value from time series:   113.50     for time:  135.0     to  136.0    
RIV   no.   10 value from time series:   113.50     for time:  135.0     to  136.0    

 NO OUTPUT CONTROL FOR STRESS PERIOD    6   TIME STEP   15
RIV   no.    1 value from time series:   101.00     for time:  136.0     to  137.0    
RIV   no.    2 value from time series:   101.00     for time:  136.0     to  137.0    
RIV   no.    3 value from time series:   111.50     for time:  136.0     to  137.0    
RIV   no.    4 value from time series:   111.50     for time:  136.0     to  137.0    
RIV   no.    5 value from time series:   115.10     for time:  136.0     to  137.0    
RIV   no.    6 value from time series:   115.10     for time:  136.0     to  137.0    
RIV   no.    7 value from time series:   104.00     for time:  136.0     to  137.0    
RIV   no.    8 value from time series:   104.00     for time:  136.0     to  137.0    
RIV   no.    9 value from time series:   113.50     for time:  136.0     to  137.0    
RIV   no.   10 value from time series:   113.50     for time:  136.0     to  137.0    
RIV   no.    1 value from time series:   101.00     for time:  136.0     to  137.0    
RIV   no.    2 value from time series:   101.00     for time:  136.0     to  137.0    
RIV   no.    3 value from time series:   111.50     for time:  136.0     to  137.0    
RIV   no.    4 value from time series:   111.50     for time:  136.0     to  137.0    
RIV   no.    5 value from time series:   115.10     for time:  136.0     to  137.0    
RIV   no.    6 value from time series:   115.10     for time:  136.0     to  137.0    
RIV   no.    7 value from time series:   104.00     for time:  136.0     to  137.0    
RIV   no.    8 value from time series:   104.00     for time:  136.0     to  137.0    
RIV   no.    9 value from time series:   113.50     for time:  136.0     to  137.0    
RIV   no.   10 value from time series:   113.50     for time:  136.0     to  137.0    

 NO OUTPUT CONTROL FOR STRESS PERIOD    6   TIME STEP   16
RIV   no.    1 value from time series:   101.00     for time:  137.0     to  138.0    
RIV   no.    2 value from time series:   101.00     for time:  137.0     to  138.0    
RIV   no.    3 value from time series:   111.50     for time:  137.0     to  138.0    
RIV   no.    4 value from time series:   111.50     for time:  137.0     to  138.0    
RIV   no.    5 value from time series:   115.10     for time:  137.0     to  138.0    
RIV   no.    6 value from time series:   115.10     for time:  137.0     to  138.0    
RIV   no.    7 value from time series:   104.00     for time:  137.0     to  138.0    
RIV   no.    8 value from time series:   104.00     for time:  137.0     to  138.0    
RIV   no.    9 value from time series:   113.50     for time:  137.0     to  138.0    
RIV   no.   10 value from time series:   113.50     for time:  137.0     to  138.0    
RIV   no.    1 value from time series:   101.00     for time:  137.0     to  138.0    
RIV   no.    2 value from time series:   101.00     for time:  137.0     to  138.0    
RIV   no.    3 value from time series:   111.50     for time:  137.0     to  138.0    
RIV   no.    4 value from time series:   111.50     for time:  137.0     to  138.0    
RIV   no.    5 value from time series:   115.10     for time:  137.0     to  138.0    
RIV   no.    6 value from time series:   115.10     for time:  137.0     to  138.0    
RIV   no.    7 value from time series:   104.00     for time:  137.0     to  138.0    
RIV   no.    8 value from time series:   104.00     for time:  137.0     to  138.0    
RIV   no.    9 value from time series:   113.50     for time:  137.0     to  138.0    
RIV   no.   10 value from time series:   113.50     for time:  137.0     to  138.0    

 NO OUTPUT CONTROL FOR STRESS PERIOD    6   TIME STEP   17
RIV   no.    1 value from time series:   101.00     for time:  138.0     to  139.0    
RIV   no.    2 value from time series:   101.00     for time:  138.0     to  139.0    
RIV   no.    3 value from time series:   111.50     for time:  138.0     to  139.0    
RIV   no.    4 value from time series:   111.50     for time:  138.0     to  139.0    
RIV   no.    5 value from time series:   115.10     for time:  138.0     to  139.0    
RIV   no.    6 value from time series:   115.10     for time:  138.0     to  139.0    
RIV   no.    7 value from time series:   104.00     for time:  138.0     to  139.0    
RIV   no.    8 value from time series:   104.00     for time:  138.0     to  139.0    
RIV   no.    9 value from time series:   113.50     for time:  138.0     to  139.0    
RIV   no.   10 value from time series:   113.50     for time:  138.0     to  139.0    
RIV   no.    1 value from time series:   101.00     for time:  138.0     to  139.0    
RIV   no.    2 value from time series:   101.00     for time:  138.0     to  139.0    
RIV   no.    3 value from time series:   111.50     for time:  138.0     to  139.0    
RIV   no.    4 value from time series:   111.50     for time:  138.0     to  139.0    
RIV   no.    5 value from time series:   115.10     for time:  138.0     to  139.0    
RIV   no.    6 value from time series:   115.10     for time:  138.0     to  139.0    
RIV   no.    7 value from time series:   104.00     for time:  138.0     to  139.0    
RIV   no.    8 value from time series:   104.00     for time:  138.0     to  139.0    
RIV   no.    9 value from time series:   113.50     for time:  138.0     to  139.0    
RIV   no.   10 value from time series:   113.50     for time:  138.0     to  139.0    

 NO OUTPUT CONTROL FOR STRESS PERIOD    6   TIME STEP   18
RIV   no.    1 value from time series:   101.00     for time:  139.0     to  140.0    
RIV   no.    2 value from time series:   101.00     for time:  139.0     to  140.0    
RIV   no.    3 value from time series:   111.50     for time:  139.0     to  140.0    
RIV   no.    4 value from time series:   111.50     for time:  139.0     to  140.0    
RIV   no.    5 value from time series:   115.10     for time:  139.0     to  140.0    
RIV   no.    6 value from time series:   115.10     for time:  139.0     to  140.0    
RIV   no.    7 value from time series:   104.00     for time:  139.0     to  140.0    
RIV   no.    8 value from time series:   104.00     for time:  139.0     to  140.0    
RIV   no.    9 value from time series:   113.50     for time:  139.0     to  140.0    
RIV   no.   10 value from time series:   113.50     for time:  139.0     to  140.0    
RIV   no.    1 value from time series:   101.00     for time:  139.0     to  140.0    
RIV   no.    2 value from time series:   101.00     for time:  139.0     to  140.0    
RIV   no.    3 value from time series:   111.50     for time:  139.0     to  140.0    
RIV   no.    4 value from time series:   111.50     for time:  139.0     to  140.0    
RIV   no.    5 value from time series:   115.10     for time:  139.0     to  140.0    
RIV   no.    6 value from time series:   115.10     for time:  139.0     to  140.0    
RIV   no.    7 value from time series:   104.00     for time:  139.0     to  140.0    
RIV   no.    8 value from time series:   104.00     for time:  139.0     to  140.0    
RIV   no.    9 value from time series:   113.50     for time:  139.0     to  140.0    
RIV   no.   10 value from time series:   113.50     for time:  139.0     to  140.0    

 NO OUTPUT CONTROL FOR STRESS PERIOD    6   TIME STEP   19
RIV   no.    1 value from time series:   101.00     for time:  140.0     to  141.0    
RIV   no.    2 value from time series:   101.00     for time:  140.0     to  141.0    
RIV   no.    3 value from time series:   111.50     for time:  140.0     to  141.0    
RIV   no.    4 value from time series:   111.50     for time:  140.0     to  141.0    
RIV   no.    5 value from time series:   115.10     for time:  140.0     to  141.0    
RIV   no.    6 value from time series:   115.10     for time:  140.0     to  141.0    
RIV   no.    7 value from time series:   104.00     for time:  140.0     to  141.0    
RIV   no.    8 value from time series:   104.00     for time:  140.0     to  141.0    
RIV   no.    9 value from time series:   113.50     for time:  140.0     to  141.0    
RIV   no.   10 value from time series:   113.50     for time:  140.0     to  141.0    
RIV   no.    1 value from time series:   101.00     for time:  140.0     to  141.0    
RIV   no.    2 value from time series:   101.00     for time:  140.0     to  141.0    
RIV   no.    3 value from time series:   111.50     for time:  140.0     to  141.0    
RIV   no.    4 value from time series:   111.50     for time:  140.0     to  141.0    
RIV   no.    5 value from time series:   115.10     for time:  140.0     to  141.0    
RIV   no.    6 value from time series:   115.10     for time:  140.0     to  141.0    
RIV   no.    7 value from time series:   104.00     for time:  140.0     to  141.0    
RIV   no.    8 value from time series:   104.00     for time:  140.0     to  141.0    
RIV   no.    9 value from time series:   113.50     for time:  140.0     to  141.0    
RIV   no.   10 value from time series:   113.50     for time:  140.0     to  141.0    

 NO OUTPUT CONTROL FOR STRESS PERIOD    6   TIME STEP   20
RIV   no.    1 value from time series:   101.00     for time:  141.0     to  142.0    
RIV   no.    2 value from time series:   101.00     for time:  141.0     to  142.0    
RIV   no.    3 value from time series:   111.50     for time:  141.0     to  142.0    
RIV   no.    4 value from time series:   111.50     for time:  141.0     to  142.0    
RIV   no.    5 value from time series:   115.10     for time:  141.0     to  142.0    
RIV   no.    6 value from time series:   115.10     for time:  141.0     to  142.0    
RIV   no.    7 value from time series:   104.00     for time:  141.0     to  142.0    
RIV   no.    8 value from time series:   104.00     for time:  141.0     to  142.0    
RIV   no.    9 value from time series:   113.50     for time:  141.0     to  142.0    
RIV   no.   10 value from time series:   113.50     for time:  141.0     to  142.0    
RIV   no.    1 value from time series:   101.00     for time:  141.0     to  142.0    
RIV   no.    2 value from time series:   101.00     for time:  141.0     to  142.0    
RIV   no.    3 value from time series:   111.50     for time:  141.0     to  142.0    
RIV   no.    4 value from time series:   111.50     for time:  141.0     to  142.0    
RIV   no.    5 value from time series:   115.10     for time:  141.0     to  142.0    
RIV   no.    6 value from time series:   115.10     for time:  141.0     to  142.0    
RIV   no.    7 value from time series:   104.00     for time:  141.0     to  142.0    
RIV   no.    8 value from time series:   104.00     for time:  141.0     to  142.0    
RIV   no.    9 value from time series:   113.50     for time:  141.0     to  142.0    
RIV   no.   10 value from time series:   113.50     for time:  141.0     to  142.0    

 NO OUTPUT CONTROL FOR STRESS PERIOD    6   TIME STEP   21
RIV   no.    1 value from time series:   101.00     for time:  142.0     to  143.0    
RIV   no.    2 value from time series:   101.00     for time:  142.0     to  143.0    
RIV   no.    3 value from time series:   111.50     for time:  142.0     to  143.0    
RIV   no.    4 value from time series:   111.50     for time:  142.0     to  143.0    
RIV   no.    5 value from time series:   115.10     for time:  142.0     to  143.0    
RIV   no.    6 value from time series:   115.10     for time:  142.0     to  143.0    
RIV   no.    7 value from time series:   104.00     for time:  142.0     to  143.0    
RIV   no.    8 value from time series:   104.00     for time:  142.0     to  143.0    
RIV   no.    9 value from time series:   113.50     for time:  142.0     to  143.0    
RIV   no.   10 value from time series:   113.50     for time:  142.0     to  143.0    
RIV   no.    1 value from time series:   101.00     for time:  142.0     to  143.0    
RIV   no.    2 value from time series:   101.00     for time:  142.0     to  143.0    
RIV   no.    3 value from time series:   111.50     for time:  142.0     to  143.0    
RIV   no.    4 value from time series:   111.50     for time:  142.0     to  143.0    
RIV   no.    5 value from time series:   115.10     for time:  142.0     to  143.0    
RIV   no.    6 value from time series:   115.10     for time:  142.0     to  143.0    
RIV   no.    7 value from time series:   104.00     for time:  142.0     to  143.0    
RIV   no.    8 value from time series:   104.00     for time:  142.0     to  143.0    
RIV   no.    9 value from time series:   113.50     for time:  142.0     to  143.0    
RIV   no.   10 value from time series:   113.50     for time:  142.0     to  143.0    

 NO OUTPUT CONTROL FOR STRESS PERIOD    6   TIME STEP   22
RIV   no.    1 value from time series:   101.00     for time:  143.0     to  144.0    
RIV   no.    2 value from time series:   101.00     for time:  143.0     to  144.0    
RIV   no.    3 value from time series:   111.50     for time:  143.0     to  144.0    
RIV   no.    4 value from time series:   111.50     for time:  143.0     to  144.0    
RIV   no.    5 value from time series:   115.10     for time:  143.0     to  144.0    
RIV   no.    6 value from time series:   115.10     for time:  143.0     to  144.0    
RIV   no.    7 value from time series:   104.00     for time:  143.0     to  144.0    
RIV   no.    8 value from time series:   104.00     for time:  143.0     to  144.0    
RIV   no.    9 value from time series:   113.50     for time:  143.0     to  144.0    
RIV   no.   10 value from time series:   113.50     for time:  143.0     to  144.0    
RIV   no.    1 value from time series:   101.00     for time:  143.0     to  144.0    
RIV   no.    2 value from time series:   101.00     for time:  143.0     to  144.0    
RIV   no.    3 value from time series:   111.50     for time:  143.0     to  144.0    
RIV   no.    4 value from time series:   111.50     for time:  143.0     to  144.0    
RIV   no.    5 value from time series:   115.10     for time:  143.0     to  144.0    
RIV   no.    6 value from time series:   115.10     for time:  143.0     to  144.0    
RIV   no.    7 value from time series:   104.00     for time:  143.0     to  144.0    
RIV   no.    8 value from time series:   104.00     for time:  143.0     to  144.0    
RIV   no.    9 value from time series:   113.50     for time:  143.0     to  144.0    
RIV   no.   10 value from time series:   113.50     for time:  143.0     to  144.0    

 NO OUTPUT CONTROL FOR STRESS PERIOD    6   TIME STEP   23
RIV   no.    1 value from time series:   101.00     for time:  144.0     to  145.0    
RIV   no.    2 value from time series:   101.00     for time:  144.0     to  145.0    
RIV   no.    3 value from time series:   111.50     for time:  144.0     to  145.0    
RIV   no.    4 value from time series:   111.50     for time:  144.0     to  145.0    
RIV   no.    5 value from time series:   115.10     for time:  144.0     to  145.0    
RIV   no.    6 value from time series:   115.10     for time:  144.0     to  145.0    
RIV   no.    7 value from time series:   104.00     for time:  144.0     to  145.0    
RIV   no.    8 value from time series:   104.00     for time:  144.0     to  145.0    
RIV   no.    9 value from time series:   113.50     for time:  144.0     to  145.0    
RIV   no.   10 value from time series:   113.50     for time:  144.0     to  145.0    
RIV   no.    1 value from time series:   101.00     for time:  144.0     to  145.0    
RIV   no.    2 value from time series:   101.00     for time:  144.0     to  145.0    
RIV   no.    3 value from time series:   111.50     for time:  144.0     to  145.0    
RIV   no.    4 value from time series:   111.50     for time:  144.0     to  145.0    
RIV   no.    5 value from time series:   115.10     for time:  144.0     to  145.0    
RIV   no.    6 value from time series:   115.10     for time:  144.0     to  145.0    
RIV   no.    7 value from time series:   104.00     for time:  144.0     to  145.0    
RIV   no.    8 value from time series:   104.00     for time:  144.0     to  145.0    
RIV   no.    9 value from time series:   113.50     for time:  144.0     to  145.0    
RIV   no.   10 value from time series:   113.50     for time:  144.0     to  145.0    

 NO OUTPUT CONTROL FOR STRESS PERIOD    6   TIME STEP   24
RIV   no.    1 value from time series:   101.00     for time:  145.0     to  146.0    
RIV   no.    2 value from time series:   101.00     for time:  145.0     to  146.0    
RIV   no.    3 value from time series:   111.50     for time:  145.0     to  146.0    
RIV   no.    4 value from time series:   111.50     for time:  145.0     to  146.0    
RIV   no.    5 value from time series:   115.10     for time:  145.0     to  146.0    
RIV   no.    6 value from time series:   115.10     for time:  145.0     to  146.0    
RIV   no.    7 value from time series:   104.00     for time:  145.0     to  146.0    
RIV   no.    8 value from time series:   104.00     for time:  145.0     to  146.0    
RIV   no.    9 value from time series:   113.50     for time:  145.0     to  146.0    
RIV   no.   10 value from time series:   113.50     for time:  145.0     to  146.0    
RIV   no.    1 value from time series:   101.00     for time:  145.0     to  146.0    
RIV   no.    2 value from time series:   101.00     for time:  145.0     to  146.0    
RIV   no.    3 value from time series:   111.50     for time:  145.0     to  146.0    
RIV   no.    4 value from time series:   111.50     for time:  145.0     to  146.0    
RIV   no.    5 value from time series:   115.10     for time:  145.0     to  146.0    
RIV   no.    6 value from time series:   115.10     for time:  145.0     to  146.0    
RIV   no.    7 value from time series:   104.00     for time:  145.0     to  146.0    
RIV   no.    8 value from time series:   104.00     for time:  145.0     to  146.0    
RIV   no.    9 value from time series:   113.50     for time:  145.0     to  146.0    
RIV   no.   10 value from time series:   113.50     for time:  145.0     to  146.0    

 NO OUTPUT CONTROL FOR STRESS PERIOD    6   TIME STEP   25
RIV   no.    1 value from time series:   101.00     for time:  146.0     to  147.0    
RIV   no.    2 value from time series:   101.00     for time:  146.0     to  147.0    
RIV   no.    3 value from time series:   111.50     for time:  146.0     to  147.0    
RIV   no.    4 value from time series:   111.50     for time:  146.0     to  147.0    
RIV   no.    5 value from time series:   115.10     for time:  146.0     to  147.0    
RIV   no.    6 value from time series:   115.10     for time:  146.0     to  147.0    
RIV   no.    7 value from time series:   104.00     for time:  146.0     to  147.0    
RIV   no.    8 value from time series:   104.00     for time:  146.0     to  147.0    
RIV   no.    9 value from time series:   113.50     for time:  146.0     to  147.0    
RIV   no.   10 value from time series:   113.50     for time:  146.0     to  147.0    
RIV   no.    1 value from time series:   101.00     for time:  146.0     to  147.0    
RIV   no.    2 value from time series:   101.00     for time:  146.0     to  147.0    
RIV   no.    3 value from time series:   111.50     for time:  146.0     to  147.0    
RIV   no.    4 value from time series:   111.50     for time:  146.0     to  147.0    
RIV   no.    5 value from time series:   115.10     for time:  146.0     to  147.0    
RIV   no.    6 value from time series:   115.10     for time:  146.0     to  147.0    
RIV   no.    7 value from time series:   104.00     for time:  146.0     to  147.0    
RIV   no.    8 value from time series:   104.00     for time:  146.0     to  147.0    
RIV   no.    9 value from time series:   113.50     for time:  146.0     to  147.0    
RIV   no.   10 value from time series:   113.50     for time:  146.0     to  147.0    

 NO OUTPUT CONTROL FOR STRESS PERIOD    6   TIME STEP   26
RIV   no.    1 value from time series:   101.00     for time:  147.0     to  148.0    
RIV   no.    2 value from time series:   101.00     for time:  147.0     to  148.0    
RIV   no.    3 value from time series:   111.50     for time:  147.0     to  148.0    
RIV   no.    4 value from time series:   111.50     for time:  147.0     to  148.0    
RIV   no.    5 value from time series:   115.10     for time:  147.0     to  148.0    
RIV   no.    6 value from time series:   115.10     for time:  147.0     to  148.0    
RIV   no.    7 value from time series:   104.00     for time:  147.0     to  148.0    
RIV   no.    8 value from time series:   104.00     for time:  147.0     to  148.0    
RIV   no.    9 value from time series:   113.50     for time:  147.0     to  148.0    
RIV   no.   10 value from time series:   113.50     for time:  147.0     to  148.0    
RIV   no.    1 value from time series:   101.00     for time:  147.0     to  148.0    
RIV   no.    2 value from time series:   101.00     for time:  147.0     to  148.0    
RIV   no.    3 value from time series:   111.50     for time:  147.0     to  148.0    
RIV   no.    4 value from time series:   111.50     for time:  147.0     to  148.0    
RIV   no.    5 value from time series:   115.10     for time:  147.0     to  148.0    
RIV   no.    6 value from time series:   115.10     for time:  147.0     to  148.0    
RIV   no.    7 value from time series:   104.00     for time:  147.0     to  148.0    
RIV   no.    8 value from time series:   104.00     for time:  147.0     to  148.0    
RIV   no.    9 value from time series:   113.50     for time:  147.0     to  148.0    
RIV   no.   10 value from time series:   113.50     for time:  147.0     to  148.0    

 NO OUTPUT CONTROL FOR STRESS PERIOD    6   TIME STEP   27
RIV   no.    1 value from time series:   101.00     for time:  148.0     to  149.0    
RIV   no.    2 value from time series:   101.00     for time:  148.0     to  149.0    
RIV   no.    3 value from time series:   111.50     for time:  148.0     to  149.0    
RIV   no.    4 value from time series:   111.50     for time:  148.0     to  149.0    
RIV   no.    5 value from time series:   115.10     for time:  148.0     to  149.0    
RIV   no.    6 value from time series:   115.10     for time:  148.0     to  149.0    
RIV   no.    7 value from time series:   104.00     for time:  148.0     to  149.0    
RIV   no.    8 value from time series:   104.00     for time:  148.0     to  149.0    
RIV   no.    9 value from time series:   113.50     for time:  148.0     to  149.0    
RIV   no.   10 value from time series:   113.50     for time:  148.0     to  149.0    
RIV   no.    1 value from time series:   101.00     for time:  148.0     to  149.0    
RIV   no.    2 value from time series:   101.00     for time:  148.0     to  149.0    
RIV   no.    3 value from time series:   111.50     for time:  148.0     to  149.0    
RIV   no.    4 value from time series:   111.50     for time:  148.0     to  149.0    
RIV   no.    5 value from time series:   115.10     for time:  148.0     to  149.0    
RIV   no.    6 value from time series:   115.10     for time:  148.0     to  149.0    
RIV   no.    7 value from time series:   104.00     for time:  148.0     to  149.0    
RIV   no.    8 value from time series:   104.00     for time:  148.0     to  149.0    
RIV   no.    9 value from time series:   113.50     for time:  148.0     to  149.0    
RIV   no.   10 value from time series:   113.50     for time:  148.0     to  149.0    

 NO OUTPUT CONTROL FOR STRESS PERIOD    6   TIME STEP   28
RIV   no.    1 value from time series:   101.00     for time:  149.0     to  150.0    
RIV   no.    2 value from time series:   101.00     for time:  149.0     to  150.0    
RIV   no.    3 value from time series:   111.50     for time:  149.0     to  150.0    
RIV   no.    4 value from time series:   111.50     for time:  149.0     to  150.0    
RIV   no.    5 value from time series:   115.10     for time:  149.0     to  150.0    
RIV   no.    6 value from time series:   115.10     for time:  149.0     to  150.0    
RIV   no.    7 value from time series:   104.00     for time:  149.0     to  150.0    
RIV   no.    8 value from time series:   104.00     for time:  149.0     to  150.0    
RIV   no.    9 value from time series:   113.50     for time:  149.0     to  150.0    
RIV   no.   10 value from time series:   113.50     for time:  149.0     to  150.0    
RIV   no.    1 value from time series:   101.00     for time:  149.0     to  150.0    
RIV   no.    2 value from time series:   101.00     for time:  149.0     to  150.0    
RIV   no.    3 value from time series:   111.50     for time:  149.0     to  150.0    
RIV   no.    4 value from time series:   111.50     for time:  149.0     to  150.0    
RIV   no.    5 value from time series:   115.10     for time:  149.0     to  150.0    
RIV   no.    6 value from time series:   115.10     for time:  149.0     to  150.0    
RIV   no.    7 value from time series:   104.00     for time:  149.0     to  150.0    
RIV   no.    8 value from time series:   104.00     for time:  149.0     to  150.0    
RIV   no.    9 value from time series:   113.50     for time:  149.0     to  150.0    
RIV   no.   10 value from time series:   113.50     for time:  149.0     to  150.0    

 NO OUTPUT CONTROL FOR STRESS PERIOD    6   TIME STEP   29
RIV   no.    1 value from time series:   101.00     for time:  150.0     to  151.0    
RIV   no.    2 value from time series:   101.00     for time:  150.0     to  151.0    
RIV   no.    3 value from time series:   111.50     for time:  150.0     to  151.0    
RIV   no.    4 value from time series:   111.50     for time:  150.0     to  151.0    
RIV   no.    5 value from time series:   115.10     for time:  150.0     to  151.0    
RIV   no.    6 value from time series:   115.10     for time:  150.0     to  151.0    
RIV   no.    7 value from time series:   104.00     for time:  150.0     to  151.0    
RIV   no.    8 value from time series:   104.00     for time:  150.0     to  151.0    
RIV   no.    9 value from time series:   113.50     for time:  150.0     to  151.0    
RIV   no.   10 value from time series:   113.50     for time:  150.0     to  151.0    
RIV   no.    1 value from time series:   101.00     for time:  150.0     to  151.0    
RIV   no.    2 value from time series:   101.00     for time:  150.0     to  151.0    
RIV   no.    3 value from time series:   111.50     for time:  150.0     to  151.0    
RIV   no.    4 value from time series:   111.50     for time:  150.0     to  151.0    
RIV   no.    5 value from time series:   115.10     for time:  150.0     to  151.0    
RIV   no.    6 value from time series:   115.10     for time:  150.0     to  151.0    
RIV   no.    7 value from time series:   104.00     for time:  150.0     to  151.0    
RIV   no.    8 value from time series:   104.00     for time:  150.0     to  151.0    
RIV   no.    9 value from time series:   113.50     for time:  150.0     to  151.0    
RIV   no.   10 value from time series:   113.50     for time:  150.0     to  151.0    

 NO OUTPUT CONTROL FOR STRESS PERIOD    6   TIME STEP   30
RIV   no.    1 value from time series:   101.00     for time:  151.0     to  152.0    
RIV   no.    2 value from time series:   101.00     for time:  151.0     to  152.0    
RIV   no.    3 value from time series:   111.50     for time:  151.0     to  152.0    
RIV   no.    4 value from time series:   111.50     for time:  151.0     to  152.0    
RIV   no.    5 value from time series:   115.10     for time:  151.0     to  152.0    
RIV   no.    6 value from time series:   115.10     for time:  151.0     to  152.0    
RIV   no.    7 value from time series:   104.00     for time:  151.0     to  152.0    
RIV   no.    8 value from time series:   104.00     for time:  151.0     to  152.0    
RIV   no.    9 value from time series:   113.50     for time:  151.0     to  152.0    
RIV   no.   10 value from time series:   113.50     for time:  151.0     to  152.0    
RIV   no.    1 value from time series:   101.00     for time:  151.0     to  152.0    
RIV   no.    2 value from time series:   101.00     for time:  151.0     to  152.0    
RIV   no.    3 value from time series:   111.50     for time:  151.0     to  152.0    
RIV   no.    4 value from time series:   111.50     for time:  151.0     to  152.0    
RIV   no.    5 value from time series:   115.10     for time:  151.0     to  152.0    
RIV   no.    6 value from time series:   115.10     for time:  151.0     to  152.0    
RIV   no.    7 value from time series:   104.00     for time:  151.0     to  152.0    
RIV   no.    8 value from time series:   104.00     for time:  151.0     to  152.0    
RIV   no.    9 value from time series:   113.50     for time:  151.0     to  152.0    
RIV   no.   10 value from time series:   113.50     for time:  151.0     to  152.0    

 OUTPUT CONTROL FOR STRESS PERIOD    6   TIME STEP   31
    PRINT BUDGET
    PRINT HEAD
    PRINT HEAD FOR ALL LAYERS
    SAVE BUDGET
    SAVE HEAD
    SAVE HEAD FOR ALL LAYERS
 UBDSV1 SAVING          STORAGE ON UNIT   1016 AT TIME STEP     31, STRESS PERIOD      6
 UBDSV1 SAVING FLOW RIGHT FACE  ON UNIT   1016 AT TIME STEP     31, STRESS PERIOD      6
 UBDSV1 SAVING FLOW FRONT FACE  ON UNIT   1016 AT TIME STEP     31, STRESS PERIOD      6
 UBDSV1 SAVING FLOW LOWER FACE  ON UNIT   1016 AT TIME STEP     31, STRESS PERIOD      6
 UBDSV4 SAVING WELLS NEAR RIVER ON UNIT   1016 AT TIME STEP     31, STRESS PERIOD      6
 UBDSV4 SAVING RIVER            ON UNIT   1016 AT TIME STEP     31, STRESS PERIOD      6

 RIVER              PERIOD  6   STEP 31
 BOUNDARY      1   LAYER   1   ROW     1   COL    15   RATE    -5118.77    
 BOUNDARY      2   LAYER   1   ROW     2   COL    15   RATE    -6247.04      RIV2
 BOUNDARY      3   LAYER   1   ROW     3   COL    15   RATE    -2509.81      RIV3
 BOUNDARY      4   LAYER   1   ROW     4   COL    15   RATE    -3976.01    
 BOUNDARY      5   LAYER   1   ROW     5   COL    15   RATE    -2611.04    
 BOUNDARY      6   LAYER   1   ROW     6   COL    15   RATE    -1957.31    
 BOUNDARY      7   LAYER   1   ROW     7   COL    15   RATE    -6448.15      RIVX
 BOUNDARY      8   LAYER   1   ROW     8   COL    15   RATE    -6299.89      RIVX
 BOUNDARY      9   LAYER   1   ROW     9   COL    15   RATE    -2507.64      RIVX
 BOUNDARY     10   LAYER   1   ROW    10   COL    15   RATE    -3416.66    

 GHB LAKES          PERIOD  6   STEP 31
 BOUNDARY      1   LAYER   1   ROW     3   COL     1   RATE    -15182.1    
 BOUNDARY      2   LAYER   1   ROW     7   COL     1   RATE    -2406.41      GHB2_UPPER
 BOUNDARY      3   LAYER   1   ROW     7   COL     1   RATE    -13437.7      GHB2_LOWER
 UBDSV4 SAVING RECHARGE         ON UNIT   1016 AT TIME STEP     31, STRESS PERIOD      6

 RECHARGE           PERIOD  6   STEP 31
 BOUNDARY      1   LAYER   1   ROW     1   COL     1   RATE     877.500    
 BOUNDARY      2   LAYER   1   ROW     1   COL     2   RATE     877.500    
 BOUNDARY      3   LAYER   1   ROW     1   COL     3   RATE     877.500    
 BOUNDARY      4   LAYER   1   ROW     1   COL     4   RATE     877.500    
 BOUNDARY      5   LAYER   1   ROW     1   COL     5   RATE     877.500    
 BOUNDARY      6   LAYER   1   ROW     1   COL     6   RATE     877.500    
 BOUNDARY      7   LAYER   1   ROW     1   COL     7   RATE     877.500    
 BOUNDARY      8   LAYER   1   ROW     1   COL     8   RATE     877.500    
 BOUNDARY      9   LAYER   1   ROW     1   COL     9   RATE     877.500    
 BOUNDARY     10   LAYER   1   ROW     1   COL    10   RATE     877.500    
 BOUNDARY     11   LAYER   1   ROW     1   COL    11   RATE     877.500    
 BOUNDARY     12   LAYER   1   ROW     1   COL    12   RATE     877.500    
 BOUNDARY     13   LAYER   1   ROW     1   COL    13   RATE     877.500    
 BOUNDARY     14   LAYER   1   ROW     1   COL    14   RATE     877.500    
 BOUNDARY     15   LAYER   1   ROW     1   COL    15   RATE     877.500    
 BOUNDARY     16   LAYER   1   ROW     2   COL     1   RATE     877.500    
 BOUNDARY     17   LAYER   1   ROW     2   COL     2   RATE     877.500    
 BOUNDARY     18   LAYER   1   ROW     2   COL     3   RATE     877.500    
 BOUNDARY     19   LAYER   1   ROW     2   COL     4   RATE     877.500    
 BOUNDARY     20   LAYER   1   ROW     2   COL     5   RATE     877.500    
 BOUNDARY     21   LAYER   1   ROW     2   COL     6   RATE     877.500    
 BOUNDARY     22   LAYER   1   ROW     2   COL     7   RATE     877.500    
 BOUNDARY     23   LAYER   1   ROW     2   COL     8   RATE     877.500    
 BOUNDARY     24   LAYER   1   ROW     2   COL     9   RATE     877.500    
 BOUNDARY     25   LAYER   1   ROW     2   COL    10   RATE     877.500    
 BOUNDARY     26   LAYER   1   ROW     2   COL    11   RATE     877.500    
 BOUNDARY     27   LAYER   1   ROW     2   COL    12   RATE     877.500    
 BOUNDARY     28   LAYER   1   ROW     2   COL    13   RATE     877.500    
 BOUNDARY     29   LAYER   1   ROW     2   COL    14   RATE     877.500    
 BOUNDARY     30   LAYER   1   ROW     2   COL    15   RATE     877.500    
 BOUNDARY     31   LAYER   1   ROW     3   COL     1   RATE     877.500    
 BOUNDARY     32   LAYER   1   ROW     3   COL     2   RATE     877.500    
 BOUNDARY     33   LAYER   1   ROW     3   COL     3   RATE     877.500    
 BOUNDARY     34   LAYER   1   ROW     3   COL     4   RATE     877.500    
 BOUNDARY     35   LAYER   1   ROW     3   COL     5   RATE     877.500    
 BOUNDARY     36   LAYER   1   ROW     3   COL     6   RATE     877.500    
 BOUNDARY     37   LAYER   1   ROW     3   COL     7   RATE     877.500    
 BOUNDARY     38   LAYER   1   ROW     3   COL     8   RATE     877.500    
 BOUNDARY     39   LAYER   1   ROW     3   COL     9   RATE     877.500    
 BOUNDARY     40   LAYER   1   ROW     3   COL    10   RATE     877.500    
 BOUNDARY     41   LAYER   1   ROW     3   COL    11   RATE     877.500    
 BOUNDARY     42   LAYER   1   ROW     3   COL    12   RATE     877.500    
 BOUNDARY     43   LAYER   1   ROW     3   COL    13   RATE     877.500    
 BOUNDARY     44   LAYER   1   ROW     3   COL    14   RATE     877.500    
 BOUNDARY     45   LAYER   1   ROW     3   COL    15   RATE     877.500    
 BOUNDARY     46   LAYER   1   ROW     4   COL     1   RATE     877.500    
 BOUNDARY     47   LAYER   1   ROW     4   COL     2   RATE     877.500    
 BOUNDARY     48   LAYER   1   ROW     4   COL     3   RATE     877.500    
 BOUNDARY     49   LAYER   1   ROW     4   COL     4   RATE     877.500    
 BOUNDARY     50   LAYER   1   ROW     4   COL     5   RATE     877.500    
 BOUNDARY     51   LAYER   1   ROW     4   COL     6   RATE     877.500    
 BOUNDARY     52   LAYER   1   ROW     4   COL     7   RATE     877.500    
 BOUNDARY     53   LAYER   1   ROW     4   COL     8   RATE     877.500    
 BOUNDARY     54   LAYER   1   ROW     4   COL     9   RATE     877.500    
 BOUNDARY     55   LAYER   1   ROW     4   COL    10   RATE     877.500    
 BOUNDARY     56   LAYER   1   ROW     4   COL    11   RATE     877.500    
 BOUNDARY     57   LAYER   1   ROW     4   COL    12   RATE     877.500    
 BOUNDARY     58   LAYER   1   ROW     4   COL    13   RATE     877.500    
 BOUNDARY     59   LAYER   1   ROW     4   COL    14   RATE     877.500    
 BOUNDARY     60   LAYER   1   ROW     4   COL    15   RATE     877.500    
 BOUNDARY     61   LAYER   1   ROW     5   COL     1   RATE     877.500    
 BOUNDARY     62   LAYER   1   ROW     5   COL     2   RATE     877.500    
 BOUNDARY     63   LAYER   1   ROW     5   COL     3   RATE     877.500    
 BOUNDARY     64   LAYER   1   ROW     5   COL     4   RATE     877.500    
 BOUNDARY     65   LAYER   1   ROW     5   COL     5   RATE     877.500    
 BOUNDARY     66   LAYER   1   ROW     5   COL     6   RATE     877.500    
 BOUNDARY     67   LAYER   1   ROW     5   COL     7   RATE     877.500    
 BOUNDARY     68   LAYER   1   ROW     5   COL     8   RATE     877.500    
 BOUNDARY     69   LAYER   1   ROW     5   COL     9   RATE     877.500    
 BOUNDARY     70   LAYER   1   ROW     5   COL    10   RATE     877.500    
 BOUNDARY     71   LAYER   1   ROW     5   COL    11   RATE     877.500    
 BOUNDARY     72   LAYER   1   ROW     5   COL    12   RATE     877.500    
 BOUNDARY     73   LAYER   1   ROW     5   COL    13   RATE     877.500    
 BOUNDARY     74   LAYER   1   ROW     5   COL    14   RATE     877.500    
 BOUNDARY     75   LAYER   1   ROW     5   COL    15   RATE     877.500    
 BOUNDARY     76   LAYER   1   ROW     6   COL     1   RATE     877.500    
 BOUNDARY     77   LAYER   1   ROW     6   COL     2   RATE     877.500    
 BOUNDARY     78   LAYER   1   ROW     6   COL     3   RATE     877.500    
 BOUNDARY     79   LAYER   1   ROW     6   COL     4   RATE     877.500    
 BOUNDARY     80   LAYER   1   ROW     6   COL     5   RATE     877.500    
 BOUNDARY     81   LAYER   1   ROW     6   COL     6   RATE     877.500    
 BOUNDARY     82   LAYER   1   ROW     6   COL     7   RATE     877.500    
 BOUNDARY     83   LAYER   1   ROW     6   COL     8   RATE     877.500    
 BOUNDARY     84   LAYER   1   ROW     6   COL     9   RATE     877.500    
 BOUNDARY     85   LAYER   1   ROW     6   COL    10   RATE     877.500    
 BOUNDARY     86   LAYER   1   ROW     6   COL    11   RATE     877.500    
 BOUNDARY     87   LAYER   1   ROW     6   COL    12   RATE     877.500    
 BOUNDARY     88   LAYER   1   ROW     6   COL    13   RATE     877.500    
 BOUNDARY     89   LAYER   1   ROW     6   COL    14   RATE     877.500    
 BOUNDARY     90   LAYER   1   ROW     6   COL    15   RATE     877.500    
 BOUNDARY     91   LAYER   1   ROW     7   COL     1   RATE     877.500    
 BOUNDARY     92   LAYER   1   ROW     7   COL     2   RATE     877.500    
 BOUNDARY     93   LAYER   1   ROW     7   COL     3   RATE     877.500    
 BOUNDARY     94   LAYER   1   ROW     7   COL     4   RATE     877.500    
 BOUNDARY     95   LAYER   1   ROW     7   COL     5   RATE     877.500    
 BOUNDARY     96   LAYER   1   ROW     7   COL     6   RATE     877.500    
 BOUNDARY     97   LAYER   1   ROW     7   COL     7   RATE     877.500    
 BOUNDARY     98   LAYER   1   ROW     7   COL     8   RATE     877.500    
 BOUNDARY     99   LAYER   1   ROW     7   COL     9   RATE     877.500    
 BOUNDARY    100   LAYER   1   ROW     7   COL    10   RATE     877.500    
 BOUNDARY    101   LAYER   1   ROW     7   COL    11   RATE     877.500    
 BOUNDARY    102   LAYER   1   ROW     7   COL    12   RATE     877.500    
 BOUNDARY    103   LAYER   1   ROW     7   COL    13   RATE     877.500    
 BOUNDARY    104   LAYER   1   ROW     7   COL    14   RATE     877.500    
 BOUNDARY    105   LAYER   1   ROW     7   COL    15   RATE     877.500    
 BOUNDARY    106   LAYER   1   ROW     8   COL     1   RATE     877.500    
 BOUNDARY    107   LAYER   1   ROW     8   COL     2   RATE     877.500    
 BOUNDARY    108   LAYER   1   ROW     8   COL     3   RATE     877.500    
 BOUNDARY    109   LAYER   1   ROW     8   COL     4   RATE     877.500    
 BOUNDARY    110   LAYER   1   ROW     8   COL     5   RATE     877.500    
 BOUNDARY    111   LAYER   1   ROW     8   COL     6   RATE     877.500    
 BOUNDARY    112   LAYER   1   ROW     8   COL     7   RATE     877.500    
 BOUNDARY    113   LAYER   1   ROW     8   COL     8   RATE     877.500    
 BOUNDARY    114   LAYER   1   ROW     8   COL     9   RATE     877.500    
 BOUNDARY    115   LAYER   1   ROW     8   COL    10   RATE     877.500    
 BOUNDARY    116   LAYER   1   ROW     8   COL    11   RATE     877.500    
 BOUNDARY    117   LAYER   1   ROW     8   COL    12   RATE     877.500    
 BOUNDARY    118   LAYER   1   ROW     8   COL    13   RATE     877.500    
 BOUNDARY    119   LAYER   1   ROW     8   COL    14   RATE     877.500    
 BOUNDARY    120   LAYER   1   ROW     8   COL    15   RATE     877.500    
 BOUNDARY    121   LAYER   1   ROW     9   COL     1   RATE     877.500    
 BOUNDARY    122   LAYER   1   ROW     9   COL     2   RATE     877.500    
 BOUNDARY    123   LAYER   1   ROW     9   COL     3   RATE     877.500    
 BOUNDARY    124   LAYER   1   ROW     9   COL     4   RATE     877.500    
 BOUNDARY    125   LAYER   1   ROW     9   COL     5   RATE     877.500    
 BOUNDARY    126   LAYER   1   ROW     9   COL     6   RATE     877.500    
 BOUNDARY    127   LAYER   1   ROW     9   COL     7   RATE     877.500    
 BOUNDARY    128   LAYER   1   ROW     9   COL     8   RATE     877.500    
 BOUNDARY    129   LAYER   1   ROW     9   COL     9   RATE     877.500    
 BOUNDARY    130   LAYER   1   ROW     9   COL    10   RATE     877.500    
 BOUNDARY    131   LAYER   1   ROW     9   COL    11   RATE     877.500    
 BOUNDARY    132   LAYER   1   ROW     9   COL    12   RATE     877.500    
 BOUNDARY    133   LAYER   1   ROW     9   COL    13   RATE     877.500    
 BOUNDARY    134   LAYER   1   ROW     9   COL    14   RATE     877.500    
 BOUNDARY    135   LAYER   1   ROW     9   COL    15   RATE     877.500    
 BOUNDARY    136   LAYER   1   ROW    10   COL     1   RATE     877.500    
 BOUNDARY    137   LAYER   1   ROW    10   COL     2   RATE     877.500    
 BOUNDARY    138   LAYER   1   ROW    10   COL     3   RATE     877.500    
 BOUNDARY    139   LAYER   1   ROW    10   COL     4   RATE     877.500    
 BOUNDARY    140   LAYER   1   ROW    10   COL     5   RATE     877.500    
 BOUNDARY    141   LAYER   1   ROW    10   COL     6   RATE     877.500    
 BOUNDARY    142   LAYER   1   ROW    10   COL     7   RATE     877.500    
 BOUNDARY    143   LAYER   1   ROW    10   COL     8   RATE     877.500    
 BOUNDARY    144   LAYER   1   ROW    10   COL     9   RATE     877.500    
 BOUNDARY    145   LAYER   1   ROW    10   COL    10   RATE     877.500    
 BOUNDARY    146   LAYER   1   ROW    10   COL    11   RATE     877.500    
 BOUNDARY    147   LAYER   1   ROW    10   COL    12   RATE     877.500    
 BOUNDARY    148   LAYER   1   ROW    10   COL    13   RATE     877.500    
 BOUNDARY    149   LAYER   1   ROW    10   COL    14   RATE     877.500    
 BOUNDARY    150   LAYER   1   ROW    10   COL    15   RATE     877.500    
 UBDSV4 SAVING ET SEGS          ON UNIT   1016 AT TIME STEP     31, STRESS PERIOD      6

 ET SEGS            PERIOD  6   STEP 31
 BOUNDARY      1   LAYER   1   ROW     1   COL     1   RATE    -5.56404    
 BOUNDARY      2   LAYER   1   ROW     1   COL     2   RATE    -18.0104    
 BOUNDARY      3   LAYER   1   ROW     1   COL     3   RATE    -112.445    
 BOUNDARY      4   LAYER   1   ROW     1   COL     4   RATE    -132.187    
 BOUNDARY      5   LAYER   1   ROW     1   COL     5   RATE    -132.187    
 BOUNDARY      6   LAYER   1   ROW     1   COL     6   RATE    -132.187    
 BOUNDARY      7   LAYER   1   ROW     1   COL     7   RATE    -132.187    
 BOUNDARY      8   LAYER   1   ROW     1   COL     8   RATE    -132.187    
 BOUNDARY      9   LAYER   1   ROW     1   COL     9   RATE    -132.187    
 BOUNDARY     10   LAYER   1   ROW     1   COL    10   RATE    -132.187    
 BOUNDARY     11   LAYER   1   ROW     1   COL    11   RATE    -132.187    
 BOUNDARY     12   LAYER   1   ROW     1   COL    12   RATE    -31.6702    
 BOUNDARY     13   LAYER   1   ROW     1   COL    13   RATE    -1.60914    
 BOUNDARY     14   LAYER   1   ROW     1   COL    14   RATE     0.00000    
 BOUNDARY     15   LAYER   1   ROW     1   COL    15   RATE     0.00000    
 BOUNDARY     16   LAYER   1   ROW     2   COL     1   RATE     0.00000    
 BOUNDARY     17   LAYER   1   ROW     2   COL     2   RATE    -8.62526    
 BOUNDARY     18   LAYER   1   ROW     2   COL     3   RATE    -75.4616    
 BOUNDARY     19   LAYER   1   ROW     2   COL     4   RATE    -132.187    
 BOUNDARY     20   LAYER   1   ROW     2   COL     5   RATE    -132.187    
 BOUNDARY     21   LAYER   1   ROW     2   COL     6   RATE    -132.187    
 BOUNDARY     22   LAYER   1   ROW     2   COL     7   RATE    -132.187    
 BOUNDARY     23   LAYER   1   ROW     2   COL     8   RATE    -132.187    
 BOUNDARY     24   LAYER   1   ROW     2   COL     9   RATE    -132.187    
 BOUNDARY     25   LAYER   1   ROW     2   COL    10   RATE    -132.187    
 BOUNDARY     26   LAYER   1   ROW     2   COL    11   RATE    -132.187    
 BOUNDARY     27   LAYER   1   ROW     2   COL    12   RATE    -33.9730    
 BOUNDARY     28   LAYER   1   ROW     2   COL    13   RATE    -2.91221    
 BOUNDARY     29   LAYER   1   ROW     2   COL    14   RATE     0.00000    
 BOUNDARY     30   LAYER   1   ROW     2   COL    15   RATE     0.00000    
 BOUNDARY     31   LAYER   1   ROW     3   COL     1   RATE     0.00000    
 BOUNDARY     32   LAYER   1   ROW     3   COL     2   RATE     0.00000    
 BOUNDARY     33   LAYER   1   ROW     3   COL     3   RATE    -38.6180    
 BOUNDARY     34   LAYER   1   ROW     3   COL     4   RATE    -132.187    
 BOUNDARY     35   LAYER   1   ROW     3   COL     5   RATE    -132.187    
 BOUNDARY     36   LAYER   1   ROW     3   COL     6   RATE    -132.187    
 BOUNDARY     37   LAYER   1   ROW     3   COL     7   RATE    -132.187    
 BOUNDARY     38   LAYER   1   ROW     3   COL     8   RATE    -132.187    
 BOUNDARY     39   LAYER   1   ROW     3   COL     9   RATE    -132.187    
 BOUNDARY     40   LAYER   1   ROW     3   COL    10   RATE    -132.187    
 BOUNDARY     41   LAYER   1   ROW     3   COL    11   RATE    -132.187    
 BOUNDARY     42   LAYER   1   ROW     3   COL    12   RATE    -37.8468    
 BOUNDARY     43   LAYER   1   ROW     3   COL    13   RATE    -5.28214    
 BOUNDARY     44   LAYER   1   ROW     3   COL    14   RATE     0.00000    
 BOUNDARY     45   LAYER   1   ROW     3   COL    15   RATE     0.00000    
 BOUNDARY     46   LAYER   1   ROW     4   COL     1   RATE     0.00000    
 BOUNDARY     47   LAYER   1   ROW     4   COL     2   RATE    -6.62334    
 BOUNDARY     48   LAYER   1   ROW     4   COL     3   RATE    -61.1286    
 BOUNDARY     49   LAYER   1   ROW     4   COL     4   RATE    -132.187    
 BOUNDARY     50   LAYER   1   ROW     4   COL     5   RATE    -132.187    
 BOUNDARY     51   LAYER   1   ROW     4   COL     6   RATE    -132.187    
 BOUNDARY     52   LAYER   1   ROW     4   COL     7   RATE    -132.187    
 BOUNDARY     53   LAYER   1   ROW     4   COL     8   RATE    -132.187    
 BOUNDARY     54   LAYER   1   ROW     4   COL     9   RATE    -132.187    
 BOUNDARY     55   LAYER   1   ROW     4   COL    10   RATE    -132.187    
 BOUNDARY     56   LAYER   1   ROW     4   COL    11   RATE    -132.187    
 BOUNDARY     57   LAYER   1   ROW     4   COL    12   RATE    -49.2708    
 BOUNDARY     58   LAYER   1   ROW     4   COL    13   RATE    -7.19101    
 BOUNDARY     59   LAYER   1   ROW     4   COL    14   RATE     0.00000    
 BOUNDARY     60   LAYER   1   ROW     4   COL    15   RATE     0.00000    
 BOUNDARY     61   LAYER   1   ROW     5   COL     1   RATE     0.00000    
 BOUNDARY     62   LAYER   1   ROW     5   COL     2   RATE    -10.5933    
 BOUNDARY     63   LAYER   1   ROW     5   COL     3   RATE    -88.2150    
 BOUNDARY     64   LAYER   1   ROW     5   COL     4   RATE    -132.187    
 BOUNDARY     65   LAYER   1   ROW     5   COL     5   RATE    -132.187    
 BOUNDARY     66   LAYER   1   ROW     5   COL     6   RATE    -132.187    
 BOUNDARY     67   LAYER   1   ROW     5   COL     7   RATE    -132.187    
 BOUNDARY     68   LAYER   1   ROW     5   COL     8   RATE    -132.187    
 BOUNDARY     69   LAYER   1   ROW     5   COL     9   RATE    -132.187    
 BOUNDARY     70   LAYER   1   ROW     5   COL    10   RATE    -132.187    
 BOUNDARY     71   LAYER   1   ROW     5   COL    11   RATE    -132.187    
 BOUNDARY     72   LAYER   1   ROW     5   COL    12   RATE    -62.1415    
 BOUNDARY     73   LAYER   1   ROW     5   COL    13   RATE    -8.34347    
 BOUNDARY     74   LAYER   1   ROW     5   COL    14   RATE     0.00000    
 BOUNDARY     75   LAYER   1   ROW     5   COL    15   RATE     0.00000    
 BOUNDARY     76   LAYER   1   ROW     6   COL     1   RATE     0.00000    
 BOUNDARY     77   LAYER   1   ROW     6   COL     2   RATE    -8.63209    
 BOUNDARY     78   LAYER   1   ROW     6   COL     3   RATE    -92.8688    
 BOUNDARY     79   LAYER   1   ROW     6   COL     4   RATE    -132.187    
 BOUNDARY     80   LAYER   1   ROW     6   COL     5   RATE    -132.187    
 BOUNDARY     81   LAYER   1   ROW     6   COL     6   RATE    -132.187    
 BOUNDARY     82   LAYER   1   ROW     6   COL     7   RATE    -132.187    
 BOUNDARY     83   LAYER   1   ROW     6   COL     8   RATE    -132.187    
 BOUNDARY     84   LAYER   1   ROW     6   COL     9   RATE    -132.187    
 BOUNDARY     85   LAYER   1   ROW     6   COL    10   RATE    -132.187    
 BOUNDARY     86   LAYER   1   ROW     6   COL    11   RATE    -132.187    
 BOUNDARY     87   LAYER   1   ROW     6   COL    12   RATE    -66.4245    
 BOUNDARY     88   LAYER   1   ROW     6   COL    13   RATE    -8.27420    
 BOUNDARY     89   LAYER   1   ROW     6   COL    14   RATE     0.00000    
 BOUNDARY     90   LAYER   1   ROW     6   COL    15   RATE     0.00000    
 BOUNDARY     91   LAYER   1   ROW     7   COL     1   RATE     0.00000    
 BOUNDARY     92   LAYER   1   ROW     7   COL     2   RATE    -3.83108    
 BOUNDARY     93   LAYER   1   ROW     7   COL     3   RATE    -101.583    
 BOUNDARY     94   LAYER   1   ROW     7   COL     4   RATE    -132.187    
 BOUNDARY     95   LAYER   1   ROW     7   COL     5   RATE    -132.187    
 BOUNDARY     96   LAYER   1   ROW     7   COL     6   RATE    -132.187    
 BOUNDARY     97   LAYER   1   ROW     7   COL     7   RATE    -132.187    
 BOUNDARY     98   LAYER   1   ROW     7   COL     8   RATE    -132.187    
 BOUNDARY     99   LAYER   1   ROW     7   COL     9   RATE    -132.187    
 BOUNDARY    100   LAYER   1   ROW     7   COL    10   RATE    -132.187    
 BOUNDARY    101   LAYER   1   ROW     7   COL    11   RATE    -132.187    
 BOUNDARY    102   LAYER   1   ROW     7   COL    12   RATE    -65.5038    
 BOUNDARY    103   LAYER   1   ROW     7   COL    13   RATE    -7.33964    
 BOUNDARY    104   LAYER   1   ROW     7   COL    14   RATE     0.00000    
 BOUNDARY    105   LAYER   1   ROW     7   COL    15   RATE     0.00000    
 BOUNDARY    106   LAYER   1   ROW     8   COL     1   RATE   -0.303388    
 BOUNDARY    107   LAYER   1   ROW     8   COL     2   RATE    -23.7973    
 BOUNDARY    108   LAYER   1   ROW     8   COL     3   RATE    -132.187    
 BOUNDARY    109   LAYER   1   ROW     8   COL     4   RATE    -132.187    
 BOUNDARY    110   LAYER   1   ROW     8   COL     5   RATE    -132.187    
 BOUNDARY    111   LAYER   1   ROW     8   COL     6   RATE    -132.187    
 BOUNDARY    112   LAYER   1   ROW     8   COL     7   RATE    -132.187    
 BOUNDARY    113   LAYER   1   ROW     8   COL     8   RATE    -132.187    
 BOUNDARY    114   LAYER   1   ROW     8   COL     9   RATE    -132.187    
 BOUNDARY    115   LAYER   1   ROW     8   COL    10   RATE    -132.187    
 BOUNDARY    116   LAYER   1   ROW     8   COL    11   RATE    -132.187    
 BOUNDARY    117   LAYER   1   ROW     8   COL    12   RATE    -68.4932    
 BOUNDARY    118   LAYER   1   ROW     8   COL    13   RATE    -7.40352    
 BOUNDARY    119   LAYER   1   ROW     8   COL    14   RATE     0.00000    
 BOUNDARY    120   LAYER   1   ROW     8   COL    15   RATE     0.00000    
 BOUNDARY    121   LAYER   1   ROW     9   COL     1   RATE    -33.8994    
 BOUNDARY    122   LAYER   1   ROW     9   COL     2   RATE    -127.365    
 BOUNDARY    123   LAYER   1   ROW     9   COL     3   RATE    -132.187    
 BOUNDARY    124   LAYER   1   ROW     9   COL     4   RATE    -132.187    
 BOUNDARY    125   LAYER   1   ROW     9   COL     5   RATE    -132.187    
 BOUNDARY    126   LAYER   1   ROW     9   COL     6   RATE    -132.187    
 BOUNDARY    127   LAYER   1   ROW     9   COL     7   RATE    -132.187    
 BOUNDARY    128   LAYER   1   ROW     9   COL     8   RATE    -132.187    
 BOUNDARY    129   LAYER   1   ROW     9   COL     9   RATE    -132.187    
 BOUNDARY    130   LAYER   1   ROW     9   COL    10   RATE    -132.187    
 BOUNDARY    131   LAYER   1   ROW     9   COL    11   RATE    -132.187    
 BOUNDARY    132   LAYER   1   ROW     9   COL    12   RATE    -76.3428    
 BOUNDARY    133   LAYER   1   ROW     9   COL    13   RATE    -8.55941    
 BOUNDARY    134   LAYER   1   ROW     9   COL    14   RATE     0.00000    
 BOUNDARY    135   LAYER   1   ROW     9   COL    15   RATE     0.00000    
 BOUNDARY    136   LAYER   1   ROW    10   COL     1   RATE    -132.187    
 BOUNDARY    137   LAYER   1   ROW    10   COL     2   RATE    -132.187    
 BOUNDARY    138   LAYER   1   ROW    10   COL     3   RATE    -132.187    
 BOUNDARY    139   LAYER   1   ROW    10   COL     4   RATE    -132.187    
 BOUNDARY    140   LAYER   1   ROW    10   COL     5   RATE    -132.187    
 BOUNDARY    141   LAYER   1   ROW    10   COL     6   RATE    -132.187    
 BOUNDARY    142   LAYER   1   ROW    10   COL     7   RATE    -132.187    
 BOUNDARY    143   LAYER   1   ROW    10   COL     8   RATE    -132.187    
 BOUNDARY    144   LAYER   1   ROW    10   COL     9   RATE    -132.187    
 BOUNDARY    145   LAYER   1   ROW    10   COL    10   RATE    -132.187    
 BOUNDARY    146   LAYER   1   ROW    10   COL    11   RATE    -132.187    
 BOUNDARY    147   LAYER   1   ROW    10   COL    12   RATE    -81.9552    
 BOUNDARY    148   LAYER   1   ROW    10   COL    13   RATE    -9.29607    
 BOUNDARY    149   LAYER   1   ROW    10   COL    14   RATE     0.00000    
 BOUNDARY    150   LAYER   1   ROW    10   COL    15   RATE     0.00000    
1
  HEAD             IN LAYER   1 AT END OF TIME STEP  31 IN STRESS PERIOD    6
  ---------------------------------------------------------------------------

           1          2          3          4          5          6          7          8
 ........................................................................................
   1   132.10460  135.54373  139.57329  143.08931  145.76493  147.50589  148.30044  148.14679
   2   126.72395  133.26251  138.77391  142.81996  145.69054  147.50403  148.32796  148.19068
   3   110.10122  129.76908  137.88219  142.58002  145.65503  147.54154  148.39587  148.27800
   4   125.45920  132.50528  138.46411  142.77058  145.77994  147.65914  148.51530  148.40438
   5   129.28701  134.00691  139.04956  143.09125  146.01007  147.84858  148.68196  148.56007
   6   126.17113  133.26509  139.15015  143.38527  146.30045  148.09414  148.88535  148.73371
   7   111.71519  131.44911  139.33850  143.83637  146.69376  148.39584  149.11481  148.91408
   8   130.11476  136.20040  141.15103  144.75171  147.23027  148.73909  149.34963  149.08556
   9   137.34675  139.89576  142.97245  145.69031  147.74883  149.04772  149.54786  149.22371
  10   140.12412  141.71667  144.00187  146.25204  148.06129  149.23031  149.66208  149.30156
1
  HEAD             IN LAYER   1 AT END OF TIME STEP  31 IN STRESS PERIOD    6
  ---------------------------------------------------------------------------

           9         10         11         12         13         14         15
 .............................................................................
   1   147.02659  144.89024  141.63928  137.09378  130.60866  121.16590  106.11365
   2   147.08787  144.98085  141.78683  137.35509  131.10155  122.06818  107.23457
   3   147.19979  145.13784  142.03452  137.79467  131.99797  124.21462  114.00231
   4   147.34394  145.32089  142.29595  138.20781  132.72000  125.45780  115.46017
   5   147.50111  145.49494  142.50738  138.48600  133.15592  126.28552  117.69805
   6   147.65730  145.64160  142.64174  138.57858  133.12972  125.96102  117.04563
   7   147.80529  145.76372  142.72500  138.55868  132.77622  124.40098  110.40332
   8   147.93901  145.87359  142.81557  138.62329  132.80038  124.34247  110.24989
   9   148.04508  145.96704  142.91982  138.79296  133.23760  125.77157  115.98527
  10   148.10474  146.02225  142.98889  138.91426  133.51624  126.38955  116.88283
1
  HEAD             IN LAYER   2 AT END OF TIME STEP  31 IN STRESS PERIOD    6
  ---------------------------------------------------------------------------

           1          2          3          4          5          6          7          8
 ........................................................................................
   1   132.97362  135.25264  138.42556  141.50046  143.98031  145.64547  146.40622  146.22220
   2   131.16073  134.24520  137.98193  141.33367  143.93555  145.65273  146.43701  146.26765
   3   128.51200  133.10825  137.55936  141.20614  143.93088  145.70030  146.50913  146.35734
   4   130.50029  133.81661  137.81158  141.34622  144.05233  145.82092  146.63165  146.48635
   5   131.72263  134.53309  138.22977  141.63517  144.28036  146.01338  146.80155  146.64505
   6   131.38284  134.65775  138.56124  141.98878  144.58854  146.26619  147.00910  146.82206
   7   130.40338  134.88093  139.10587  142.50432  144.99575  146.57285  147.24168  147.00530
   8   134.31758  137.10263  140.39214  143.29325  145.50118  146.90944  147.47614  147.17816
   9   137.57773  139.30186  141.71926  144.07871  145.97475  147.20597  147.67179  147.31640
  10   139.26028  140.54243  142.50993  144.55457  146.25917  147.38027  147.78393  147.39396
1
  HEAD             IN LAYER   2 AT END OF TIME STEP  31 IN STRESS PERIOD    6
  ---------------------------------------------------------------------------

           9         10         11         12         13         14         15
 .............................................................................
   1   145.06360  142.89447  139.67041  135.35321  129.96239  123.87992  118.53643
   2   145.12569  142.98439  139.81155  135.58810  130.36034  124.52340  119.42460
   3   145.23907  143.14046  140.04807  135.97533  131.02622  125.68174  121.32926
   4   145.38549  143.32445  140.30407  136.36068  131.63086  126.60691  122.56506
   5   145.54590  143.50233  140.51942  136.64010  132.01418  127.14969  123.33155
   6   145.70615  143.65600  140.66934  136.77423  132.09417  127.10325  123.11670
   7   145.85810  143.78608  140.77362  136.82211  131.99620  126.64865  121.97088
   8   145.99433  143.90051  140.87340  136.90710  132.05888  126.67329  121.95125
   9   146.10126  143.99445  140.97344  137.04696  132.31730  127.22510  123.08054
  10   146.16102  144.04908  141.03796  137.14808  132.50734  127.58143  123.63321

 HEAD WILL BE SAVED ON UNIT 1017 AT END OF TIME STEP   31, STRESS PERIOD    6
1
  VOLUME BUDGET FOR ENTIRE MODEL AT END OF TIME STEP   31, STRESS PERIOD   6
  ------------------------------------------------------------------------------

     CUMULATIVE VOLUME      L**3       RATES FOR THIS TIME STEP      L**3/T
     ------------------                 ------------------------

           IN:                                      IN:
           ---                                      ---
             STORAGE =       53094.4490               STORAGE =           0.0000
    WELLS NEAR RIVER =           0.0000      WELLS NEAR RIVER =           0.0000
               RIVER =           0.0000                 RIVER =           0.0000
           GHB LAKES =           0.0000             GHB LAKES =           0.0000
            RECHARGE =    15675500.0000              RECHARGE =      131625.0000
             ET SEGS =           0.0000               ET SEGS =           0.0000

            TOTAL IN =    15728594.4490              TOTAL IN =      131625.0000

          OUT:                                     OUT:
          ----                                     ----
             STORAGE =     4012087.5511               STORAGE =       46813.0635
    WELLS NEAR RIVER =        5570.0000      WELLS NEAR RIVER =           0.0000
               RIVER =     5780398.4686                 RIVER =       41092.3177
           GHB LAKES =     4558290.4140             GHB LAKES =       31026.2841
            RECHARGE =           0.0000              RECHARGE =           0.0000
             ET SEGS =     1372248.0165               ET SEGS =       12693.3347

           TOTAL OUT =    15728594.4502             TOTAL OUT =      131625.0000

            IN - OUT =      -1.1951E-03              IN - OUT =      -4.4372E-06

 PERCENT DISCREPANCY =          -0.00     PERCENT DISCREPANCY =          -0.00






         TIME SUMMARY AT END OF TIME STEP   31 IN STRESS PERIOD    6
                    SECONDS     MINUTES      HOURS       DAYS        YEARS
                    -----------------------------------------------------------
   TIME STEP LENGTH  86400.      1440.0      24.000     1.00000     2.73785E-03
 STRESS PERIOD TIME 2.67840E+06  44640.      744.00      31.000     8.48734E-02
         TOTAL TIME 1.31328E+07 2.18880E+05  3648.0      152.00     0.41615    

 REUSING STORAGE VALUES FROM LAST STRESS PERIOD

 REUSING WELS FROM LAST STRESS PERIOD

 REUSING RIVS FROM LAST STRESS PERIOD

 REUSING GHBS FROM LAST STRESS PERIOD

 REUSING RCHS FROM LAST STRESS PERIOD

 REUSING EVTS FROM LAST STRESS PERIOD
RIV   no.    1 value from time series:   101.00     for time:  152.0     to  153.0    
RIV   no.    2 value from time series:   101.00     for time:  152.0     to  153.0    
RIV   no.    3 value from time series:   111.50     for time:  152.0     to  153.0    
RIV   no.    4 value from time series:   111.50     for time:  152.0     to  153.0    
RIV   no.    5 value from time series:   115.10     for time:  152.0     to  153.0    
RIV   no.    6 value from time series:   115.10     for time:  152.0     to  153.0    
RIV   no.    7 value from time series:   104.00     for time:  152.0     to  153.0    
RIV   no.    8 value from time series:   104.00     for time:  152.0     to  153.0    
RIV   no.    9 value from time series:   113.50     for time:  152.0     to  153.0    
RIV   no.   10 value from time series:   113.50     for time:  152.0     to  153.0    
RIV   no.    1 value from time series:   101.00     for time:  152.0     to  153.0    
RIV   no.    2 value from time series:   101.00     for time:  152.0     to  153.0    
RIV   no.    3 value from time series:   111.50     for time:  152.0     to  153.0    
RIV   no.    4 value from time series:   111.50     for time:  152.0     to  153.0    
RIV   no.    5 value from time series:   115.10     for time:  152.0     to  153.0    
RIV   no.    6 value from time series:   115.10     for time:  152.0     to  153.0    
RIV   no.    7 value from time series:   104.00     for time:  152.0     to  153.0    
RIV   no.    8 value from time series:   104.00     for time:  152.0     to  153.0    
RIV   no.    9 value from time series:   113.50     for time:  152.0     to  153.0    
RIV   no.   10 value from time series:   113.50     for time:  152.0     to  153.0    

 NO OUTPUT CONTROL FOR STRESS PERIOD    7   TIME STEP    1
RIV   no.    1 value from time series:   101.00     for time:  153.0     to  154.0    
RIV   no.    2 value from time series:   101.00     for time:  153.0     to  154.0    
RIV   no.    3 value from time series:   111.50     for time:  153.0     to  154.0    
RIV   no.    4 value from time series:   111.50     for time:  153.0     to  154.0    
RIV   no.    5 value from time series:   115.10     for time:  153.0     to  154.0    
RIV   no.    6 value from time series:   115.10     for time:  153.0     to  154.0    
RIV   no.    7 value from time series:   104.00     for time:  153.0     to  154.0    
RIV   no.    8 value from time series:   104.00     for time:  153.0     to  154.0    
RIV   no.    9 value from time series:   113.50     for time:  153.0     to  154.0    
RIV   no.   10 value from time series:   113.50     for time:  153.0     to  154.0    
RIV   no.    1 value from time series:   101.00     for time:  153.0     to  154.0    
RIV   no.    2 value from time series:   101.00     for time:  153.0     to  154.0    
RIV   no.    3 value from time series:   111.50     for time:  153.0     to  154.0    
RIV   no.    4 value from time series:   111.50     for time:  153.0     to  154.0    
RIV   no.    5 value from time series:   115.10     for time:  153.0     to  154.0    
RIV   no.    6 value from time series:   115.10     for time:  153.0     to  154.0    
RIV   no.    7 value from time series:   104.00     for time:  153.0     to  154.0    
RIV   no.    8 value from time series:   104.00     for time:  153.0     to  154.0    
RIV   no.    9 value from time series:   113.50     for time:  153.0     to  154.0    
RIV   no.   10 value from time series:   113.50     for time:  153.0     to  154.0    

 NO OUTPUT CONTROL FOR STRESS PERIOD    7   TIME STEP    2
RIV   no.    1 value from time series:   101.00     for time:  154.0     to  155.0    
RIV   no.    2 value from time series:   101.00     for time:  154.0     to  155.0    
RIV   no.    3 value from time series:   111.50     for time:  154.0     to  155.0    
RIV   no.    4 value from time series:   111.50     for time:  154.0     to  155.0    
RIV   no.    5 value from time series:   115.10     for time:  154.0     to  155.0    
RIV   no.    6 value from time series:   115.10     for time:  154.0     to  155.0    
RIV   no.    7 value from time series:   104.00     for time:  154.0     to  155.0    
RIV   no.    8 value from time series:   104.00     for time:  154.0     to  155.0    
RIV   no.    9 value from time series:   113.50     for time:  154.0     to  155.0    
RIV   no.   10 value from time series:   113.50     for time:  154.0     to  155.0    
RIV   no.    1 value from time series:   101.00     for time:  154.0     to  155.0    
RIV   no.    2 value from time series:   101.00     for time:  154.0     to  155.0    
RIV   no.    3 value from time series:   111.50     for time:  154.0     to  155.0    
RIV   no.    4 value from time series:   111.50     for time:  154.0     to  155.0    
RIV   no.    5 value from time series:   115.10     for time:  154.0     to  155.0    
RIV   no.    6 value from time series:   115.10     for time:  154.0     to  155.0    
RIV   no.    7 value from time series:   104.00     for time:  154.0     to  155.0    
RIV   no.    8 value from time series:   104.00     for time:  154.0     to  155.0    
RIV   no.    9 value from time series:   113.50     for time:  154.0     to  155.0    
RIV   no.   10 value from time series:   113.50     for time:  154.0     to  155.0    

 NO OUTPUT CONTROL FOR STRESS PERIOD    7   TIME STEP    3
RIV   no.    1 value from time series:   101.00     for time:  155.0     to  156.0    
RIV   no.    2 value from time series:   101.00     for time:  155.0     to  156.0    
RIV   no.    3 value from time series:   111.50     for time:  155.0     to  156.0    
RIV   no.    4 value from time series:   111.50     for time:  155.0     to  156.0    
RIV   no.    5 value from time series:   115.10     for time:  155.0     to  156.0    
RIV   no.    6 value from time series:   115.10     for time:  155.0     to  156.0    
RIV   no.    7 value from time series:   104.00     for time:  155.0     to  156.0    
RIV   no.    8 value from time series:   104.00     for time:  155.0     to  156.0    
RIV   no.    9 value from time series:   113.50     for time:  155.0     to  156.0    
RIV   no.   10 value from time series:   113.50     for time:  155.0     to  156.0    
RIV   no.    1 value from time series:   101.00     for time:  155.0     to  156.0    
RIV   no.    2 value from time series:   101.00     for time:  155.0     to  156.0    
RIV   no.    3 value from time series:   111.50     for time:  155.0     to  156.0    
RIV   no.    4 value from time series:   111.50     for time:  155.0     to  156.0    
RIV   no.    5 value from time series:   115.10     for time:  155.0     to  156.0    
RIV   no.    6 value from time series:   115.10     for time:  155.0     to  156.0    
RIV   no.    7 value from time series:   104.00     for time:  155.0     to  156.0    
RIV   no.    8 value from time series:   104.00     for time:  155.0     to  156.0    
RIV   no.    9 value from time series:   113.50     for time:  155.0     to  156.0    
RIV   no.   10 value from time series:   113.50     for time:  155.0     to  156.0    

 NO OUTPUT CONTROL FOR STRESS PERIOD    7   TIME STEP    4
RIV   no.    1 value from time series:   101.00     for time:  156.0     to  157.0    
RIV   no.    2 value from time series:   101.00     for time:  156.0     to  157.0    
RIV   no.    3 value from time series:   111.50     for time:  156.0     to  157.0    
RIV   no.    4 value from time series:   111.50     for time:  156.0     to  157.0    
RIV   no.    5 value from time series:   115.10     for time:  156.0     to  157.0    
RIV   no.    6 value from time series:   115.10     for time:  156.0     to  157.0    
RIV   no.    7 value from time series:   104.00     for time:  156.0     to  157.0    
RIV   no.    8 value from time series:   104.00     for time:  156.0     to  157.0    
RIV   no.    9 value from time series:   113.50     for time:  156.0     to  157.0    
RIV   no.   10 value from time series:   113.50     for time:  156.0     to  157.0    
RIV   no.    1 value from time series:   101.00     for time:  156.0     to  157.0    
RIV   no.    2 value from time series:   101.00     for time:  156.0     to  157.0    
RIV   no.    3 value from time series:   111.50     for time:  156.0     to  157.0    
RIV   no.    4 value from time series:   111.50     for time:  156.0     to  157.0    
RIV   no.    5 value from time series:   115.10     for time:  156.0     to  157.0    
RIV   no.    6 value from time series:   115.10     for time:  156.0     to  157.0    
RIV   no.    7 value from time series:   104.00     for time:  156.0     to  157.0    
RIV   no.    8 value from time series:   104.00     for time:  156.0     to  157.0    
RIV   no.    9 value from time series:   113.50     for time:  156.0     to  157.0    
RIV   no.   10 value from time series:   113.50     for time:  156.0     to  157.0    

 NO OUTPUT CONTROL FOR STRESS PERIOD    7   TIME STEP    5
RIV   no.    1 value from time series:   101.00     for time:  157.0     to  158.0    
RIV   no.    2 value from time series:   101.00     for time:  157.0     to  158.0    
RIV   no.    3 value from time series:   111.50     for time:  157.0     to  158.0    
RIV   no.    4 value from time series:   111.50     for time:  157.0     to  158.0    
RIV   no.    5 value from time series:   115.10     for time:  157.0     to  158.0    
RIV   no.    6 value from time series:   115.10     for time:  157.0     to  158.0    
RIV   no.    7 value from time series:   104.00     for time:  157.0     to  158.0    
RIV   no.    8 value from time series:   104.00     for time:  157.0     to  158.0    
RIV   no.    9 value from time series:   113.50     for time:  157.0     to  158.0    
RIV   no.   10 value from time series:   113.50     for time:  157.0     to  158.0    
RIV   no.    1 value from time series:   101.00     for time:  157.0     to  158.0    
RIV   no.    2 value from time series:   101.00     for time:  157.0     to  158.0    
RIV   no.    3 value from time series:   111.50     for time:  157.0     to  158.0    
RIV   no.    4 value from time series:   111.50     for time:  157.0     to  158.0    
RIV   no.    5 value from time series:   115.10     for time:  157.0     to  158.0    
RIV   no.    6 value from time series:   115.10     for time:  157.0     to  158.0    
RIV   no.    7 value from time series:   104.00     for time:  157.0     to  158.0    
RIV   no.    8 value from time series:   104.00     for time:  157.0     to  158.0    
RIV   no.    9 value from time series:   113.50     for time:  157.0     to  158.0    
RIV   no.   10 value from time series:   113.50     for time:  157.0     to  158.0    

 NO OUTPUT CONTROL FOR STRESS PERIOD    7   TIME STEP    6
RIV   no.    1 value from time series:   101.00     for time:  158.0     to  159.0    
RIV   no.    2 value from time series:   101.00     for time:  158.0     to  159.0    
RIV   no.    3 value from time series:   111.50     for time:  158.0     to  159.0    
RIV   no.    4 value from time series:   111.50     for time:  158.0     to  159.0    
RIV   no.    5 value from time series:   115.10     for time:  158.0     to  159.0    
RIV   no.    6 value from time series:   115.10     for time:  158.0     to  159.0    
RIV   no.    7 value from time series:   104.00     for time:  158.0     to  159.0    
RIV   no.    8 value from time series:   104.00     for time:  158.0     to  159.0    
RIV   no.    9 value from time series:   113.50     for time:  158.0     to  159.0    
RIV   no.   10 value from time series:   113.50     for time:  158.0     to  159.0    
RIV   no.    1 value from time series:   101.00     for time:  158.0     to  159.0    
RIV   no.    2 value from time series:   101.00     for time:  158.0     to  159.0    
RIV   no.    3 value from time series:   111.50     for time:  158.0     to  159.0    
RIV   no.    4 value from time series:   111.50     for time:  158.0     to  159.0    
RIV   no.    5 value from time series:   115.10     for time:  158.0     to  159.0    
RIV   no.    6 value from time series:   115.10     for time:  158.0     to  159.0    
RIV   no.    7 value from time series:   104.00     for time:  158.0     to  159.0    
RIV   no.    8 value from time series:   104.00     for time:  158.0     to  159.0    
RIV   no.    9 value from time series:   113.50     for time:  158.0     to  159.0    
RIV   no.   10 value from time series:   113.50     for time:  158.0     to  159.0    

 NO OUTPUT CONTROL FOR STRESS PERIOD    7   TIME STEP    7
RIV   no.    1 value from time series:   101.00     for time:  159.0     to  160.0    
RIV   no.    2 value from time series:   101.00     for time:  159.0     to  160.0    
RIV   no.    3 value from time series:   111.50     for time:  159.0     to  160.0    
RIV   no.    4 value from time series:   111.50     for time:  159.0     to  160.0    
RIV   no.    5 value from time series:   115.10     for time:  159.0     to  160.0    
RIV   no.    6 value from time series:   115.10     for time:  159.0     to  160.0    
RIV   no.    7 value from time series:   104.00     for time:  159.0     to  160.0    
RIV   no.    8 value from time series:   104.00     for time:  159.0     to  160.0    
RIV   no.    9 value from time series:   113.50     for time:  159.0     to  160.0    
RIV   no.   10 value from time series:   113.50     for time:  159.0     to  160.0    
RIV   no.    1 value from time series:   101.00     for time:  159.0     to  160.0    
RIV   no.    2 value from time series:   101.00     for time:  159.0     to  160.0    
RIV   no.    3 value from time series:   111.50     for time:  159.0     to  160.0    
RIV   no.    4 value from time series:   111.50     for time:  159.0     to  160.0    
RIV   no.    5 value from time series:   115.10     for time:  159.0     to  160.0    
RIV   no.    6 value from time series:   115.10     for time:  159.0     to  160.0    
RIV   no.    7 value from time series:   104.00     for time:  159.0     to  160.0    
RIV   no.    8 value from time series:   104.00     for time:  159.0     to  160.0    
RIV   no.    9 value from time series:   113.50     for time:  159.0     to  160.0    
RIV   no.   10 value from time series:   113.50     for time:  159.0     to  160.0    

 NO OUTPUT CONTROL FOR STRESS PERIOD    7   TIME STEP    8
RIV   no.    1 value from time series:   101.00     for time:  160.0     to  161.0    
RIV   no.    2 value from time series:   101.00     for time:  160.0     to  161.0    
RIV   no.    3 value from time series:   111.50     for time:  160.0     to  161.0    
RIV   no.    4 value from time series:   111.50     for time:  160.0     to  161.0    
RIV   no.    5 value from time series:   115.10     for time:  160.0     to  161.0    
RIV   no.    6 value from time series:   115.10     for time:  160.0     to  161.0    
RIV   no.    7 value from time series:   104.00     for time:  160.0     to  161.0    
RIV   no.    8 value from time series:   104.00     for time:  160.0     to  161.0    
RIV   no.    9 value from time series:   113.50     for time:  160.0     to  161.0    
RIV   no.   10 value from time series:   113.50     for time:  160.0     to  161.0    
RIV   no.    1 value from time series:   101.00     for time:  160.0     to  161.0    
RIV   no.    2 value from time series:   101.00     for time:  160.0     to  161.0    
RIV   no.    3 value from time series:   111.50     for time:  160.0     to  161.0    
RIV   no.    4 value from time series:   111.50     for time:  160.0     to  161.0    
RIV   no.    5 value from time series:   115.10     for time:  160.0     to  161.0    
RIV   no.    6 value from time series:   115.10     for time:  160.0     to  161.0    
RIV   no.    7 value from time series:   104.00     for time:  160.0     to  161.0    
RIV   no.    8 value from time series:   104.00     for time:  160.0     to  161.0    
RIV   no.    9 value from time series:   113.50     for time:  160.0     to  161.0    
RIV   no.   10 value from time series:   113.50     for time:  160.0     to  161.0    

 NO OUTPUT CONTROL FOR STRESS PERIOD    7   TIME STEP    9
RIV   no.    1 value from time series:   101.00     for time:  161.0     to  162.0    
RIV   no.    2 value from time series:   101.00     for time:  161.0     to  162.0    
RIV   no.    3 value from time series:   111.50     for time:  161.0     to  162.0    
RIV   no.    4 value from time series:   111.50     for time:  161.0     to  162.0    
RIV   no.    5 value from time series:   115.10     for time:  161.0     to  162.0    
RIV   no.    6 value from time series:   115.10     for time:  161.0     to  162.0    
RIV   no.    7 value from time series:   104.00     for time:  161.0     to  162.0    
RIV   no.    8 value from time series:   104.00     for time:  161.0     to  162.0    
RIV   no.    9 value from time series:   113.50     for time:  161.0     to  162.0    
RIV   no.   10 value from time series:   113.50     for time:  161.0     to  162.0    
RIV   no.    1 value from time series:   101.00     for time:  161.0     to  162.0    
RIV   no.    2 value from time series:   101.00     for time:  161.0     to  162.0    
RIV   no.    3 value from time series:   111.50     for time:  161.0     to  162.0    
RIV   no.    4 value from time series:   111.50     for time:  161.0     to  162.0    
RIV   no.    5 value from time series:   115.10     for time:  161.0     to  162.0    
RIV   no.    6 value from time series:   115.10     for time:  161.0     to  162.0    
RIV   no.    7 value from time series:   104.00     for time:  161.0     to  162.0    
RIV   no.    8 value from time series:   104.00     for time:  161.0     to  162.0    
RIV   no.    9 value from time series:   113.50     for time:  161.0     to  162.0    
RIV   no.   10 value from time series:   113.50     for time:  161.0     to  162.0    

 NO OUTPUT CONTROL FOR STRESS PERIOD    7   TIME STEP   10
RIV   no.    1 value from time series:   101.00     for time:  162.0     to  163.0    
RIV   no.    2 value from time series:   101.00     for time:  162.0     to  163.0    
RIV   no.    3 value from time series:   111.50     for time:  162.0     to  163.0    
RIV   no.    4 value from time series:   111.50     for time:  162.0     to  163.0    
RIV   no.    5 value from time series:   115.10     for time:  162.0     to  163.0    
RIV   no.    6 value from time series:   115.10     for time:  162.0     to  163.0    
RIV   no.    7 value from time series:   104.00     for time:  162.0     to  163.0    
RIV   no.    8 value from time series:   104.00     for time:  162.0     to  163.0    
RIV   no.    9 value from time series:   113.50     for time:  162.0     to  163.0    
RIV   no.   10 value from time series:   113.50     for time:  162.0     to  163.0    
RIV   no.    1 value from time series:   101.00     for time:  162.0     to  163.0    
RIV   no.    2 value from time series:   101.00     for time:  162.0     to  163.0    
RIV   no.    3 value from time series:   111.50     for time:  162.0     to  163.0    
RIV   no.    4 value from time series:   111.50     for time:  162.0     to  163.0    
RIV   no.    5 value from time series:   115.10     for time:  162.0     to  163.0    
RIV   no.    6 value from time series:   115.10     for time:  162.0     to  163.0    
RIV   no.    7 value from time series:   104.00     for time:  162.0     to  163.0    
RIV   no.    8 value from time series:   104.00     for time:  162.0     to  163.0    
RIV   no.    9 value from time series:   113.50     for time:  162.0     to  163.0    
RIV   no.   10 value from time series:   113.50     for time:  162.0     to  163.0    

 NO OUTPUT CONTROL FOR STRESS PERIOD    7   TIME STEP   11
RIV   no.    1 value from time series:   101.00     for time:  163.0     to  164.0    
RIV   no.    2 value from time series:   101.00     for time:  163.0     to  164.0    
RIV   no.    3 value from time series:   111.50     for time:  163.0     to  164.0    
RIV   no.    4 value from time series:   111.50     for time:  163.0     to  164.0    
RIV   no.    5 value from time series:   115.10     for time:  163.0     to  164.0    
RIV   no.    6 value from time series:   115.10     for time:  163.0     to  164.0    
RIV   no.    7 value from time series:   104.00     for time:  163.0     to  164.0    
RIV   no.    8 value from time series:   104.00     for time:  163.0     to  164.0    
RIV   no.    9 value from time series:   113.50     for time:  163.0     to  164.0    
RIV   no.   10 value from time series:   113.50     for time:  163.0     to  164.0    
RIV   no.    1 value from time series:   101.00     for time:  163.0     to  164.0    
RIV   no.    2 value from time series:   101.00     for time:  163.0     to  164.0    
RIV   no.    3 value from time series:   111.50     for time:  163.0     to  164.0    
RIV   no.    4 value from time series:   111.50     for time:  163.0     to  164.0    
RIV   no.    5 value from time series:   115.10     for time:  163.0     to  164.0    
RIV   no.    6 value from time series:   115.10     for time:  163.0     to  164.0    
RIV   no.    7 value from time series:   104.00     for time:  163.0     to  164.0    
RIV   no.    8 value from time series:   104.00     for time:  163.0     to  164.0    
RIV   no.    9 value from time series:   113.50     for time:  163.0     to  164.0    
RIV   no.   10 value from time series:   113.50     for time:  163.0     to  164.0    

 NO OUTPUT CONTROL FOR STRESS PERIOD    7   TIME STEP   12
RIV   no.    1 value from time series:   101.00     for time:  164.0     to  165.0    
RIV   no.    2 value from time series:   101.00     for time:  164.0     to  165.0    
RIV   no.    3 value from time series:   111.50     for time:  164.0     to  165.0    
RIV   no.    4 value from time series:   111.50     for time:  164.0     to  165.0    
RIV   no.    5 value from time series:   115.10     for time:  164.0     to  165.0    
RIV   no.    6 value from time series:   115.10     for time:  164.0     to  165.0    
RIV   no.    7 value from time series:   104.00     for time:  164.0     to  165.0    
RIV   no.    8 value from time series:   104.00     for time:  164.0     to  165.0    
RIV   no.    9 value from time series:   113.50     for time:  164.0     to  165.0    
RIV   no.   10 value from time series:   113.50     for time:  164.0     to  165.0    
RIV   no.    1 value from time series:   101.00     for time:  164.0     to  165.0    
RIV   no.    2 value from time series:   101.00     for time:  164.0     to  165.0    
RIV   no.    3 value from time series:   111.50     for time:  164.0     to  165.0    
RIV   no.    4 value from time series:   111.50     for time:  164.0     to  165.0    
RIV   no.    5 value from time series:   115.10     for time:  164.0     to  165.0    
RIV   no.    6 value from time series:   115.10     for time:  164.0     to  165.0    
RIV   no.    7 value from time series:   104.00     for time:  164.0     to  165.0    
RIV   no.    8 value from time series:   104.00     for time:  164.0     to  165.0    
RIV   no.    9 value from time series:   113.50     for time:  164.0     to  165.0    
RIV   no.   10 value from time series:   113.50     for time:  164.0     to  165.0    

 NO OUTPUT CONTROL FOR STRESS PERIOD    7   TIME STEP   13
RIV   no.    1 value from time series:   101.00     for time:  165.0     to  166.0    
RIV   no.    2 value from time series:   101.00     for time:  165.0     to  166.0    
RIV   no.    3 value from time series:   111.50     for time:  165.0     to  166.0    
RIV   no.    4 value from time series:   111.50     for time:  165.0     to  166.0    
RIV   no.    5 value from time series:   115.10     for time:  165.0     to  166.0    
RIV   no.    6 value from time series:   115.10     for time:  165.0     to  166.0    
RIV   no.    7 value from time series:   104.00     for time:  165.0     to  166.0    
RIV   no.    8 value from time series:   104.00     for time:  165.0     to  166.0    
RIV   no.    9 value from time series:   113.50     for time:  165.0     to  166.0    
RIV   no.   10 value from time series:   113.50     for time:  165.0     to  166.0    
RIV   no.    1 value from time series:   101.00     for time:  165.0     to  166.0    
RIV   no.    2 value from time series:   101.00     for time:  165.0     to  166.0    
RIV   no.    3 value from time series:   111.50     for time:  165.0     to  166.0    
RIV   no.    4 value from time series:   111.50     for time:  165.0     to  166.0    
RIV   no.    5 value from time series:   115.10     for time:  165.0     to  166.0    
RIV   no.    6 value from time series:   115.10     for time:  165.0     to  166.0    
RIV   no.    7 value from time series:   104.00     for time:  165.0     to  166.0    
RIV   no.    8 value from time series:   104.00     for time:  165.0     to  166.0    
RIV   no.    9 value from time series:   113.50     for time:  165.0     to  166.0    
RIV   no.   10 value from time series:   113.50     for time:  165.0     to  166.0    

 NO OUTPUT CONTROL FOR STRESS PERIOD    7   TIME STEP   14
RIV   no.    1 value from time series:   101.00     for time:  166.0     to  167.0    
RIV   no.    2 value from time series:   101.00     for time:  166.0     to  167.0    
RIV   no.    3 value from time series:   111.50     for time:  166.0     to  167.0    
RIV   no.    4 value from time series:   111.50     for time:  166.0     to  167.0    
RIV   no.    5 value from time series:   115.10     for time:  166.0     to  167.0    
RIV   no.    6 value from time series:   115.10     for time:  166.0     to  167.0    
RIV   no.    7 value from time series:   104.00     for time:  166.0     to  167.0    
RIV   no.    8 value from time series:   104.00     for time:  166.0     to  167.0    
RIV   no.    9 value from time series:   113.50     for time:  166.0     to  167.0    
RIV   no.   10 value from time series:   113.50     for time:  166.0     to  167.0    
RIV   no.    1 value from time series:   101.00     for time:  166.0     to  167.0    
RIV   no.    2 value from time series:   101.00     for time:  166.0     to  167.0    
RIV   no.    3 value from time series:   111.50     for time:  166.0     to  167.0    
RIV   no.    4 value from time series:   111.50     for time:  166.0     to  167.0    
RIV   no.    5 value from time series:   115.10     for time:  166.0     to  167.0    
RIV   no.    6 value from time series:   115.10     for time:  166.0     to  167.0    
RIV   no.    7 value from time series:   104.00     for time:  166.0     to  167.0    
RIV   no.    8 value from time series:   104.00     for time:  166.0     to  167.0    
RIV   no.    9 value from time series:   113.50     for time:  166.0     to  167.0    
RIV   no.   10 value from time series:   113.50     for time:  166.0     to  167.0    

 NO OUTPUT CONTROL FOR STRESS PERIOD    7   TIME STEP   15
RIV   no.    1 value from time series:   101.00     for time:  167.0     to  168.0    
RIV   no.    2 value from time series:   101.00     for time:  167.0     to  168.0    
RIV   no.    3 value from time series:   111.50     for time:  167.0     to  168.0    
RIV   no.    4 value from time series:   111.50     for time:  167.0     to  168.0    
RIV   no.    5 value from time series:   115.10     for time:  167.0     to  168.0    
RIV   no.    6 value from time series:   115.10     for time:  167.0     to  168.0    
RIV   no.    7 value from time series:   104.00     for time:  167.0     to  168.0    
RIV   no.    8 value from time series:   104.00     for time:  167.0     to  168.0    
RIV   no.    9 value from time series:   113.50     for time:  167.0     to  168.0    
RIV   no.   10 value from time series:   113.50     for time:  167.0     to  168.0    
RIV   no.    1 value from time series:   101.00     for time:  167.0     to  168.0    
RIV   no.    2 value from time series:   101.00     for time:  167.0     to  168.0    
RIV   no.    3 value from time series:   111.50     for time:  167.0     to  168.0    
RIV   no.    4 value from time series:   111.50     for time:  167.0     to  168.0    
RIV   no.    5 value from time series:   115.10     for time:  167.0     to  168.0    
RIV   no.    6 value from time series:   115.10     for time:  167.0     to  168.0    
RIV   no.    7 value from time series:   104.00     for time:  167.0     to  168.0    
RIV   no.    8 value from time series:   104.00     for time:  167.0     to  168.0    
RIV   no.    9 value from time series:   113.50     for time:  167.0     to  168.0    
RIV   no.   10 value from time series:   113.50     for time:  167.0     to  168.0    

 NO OUTPUT CONTROL FOR STRESS PERIOD    7   TIME STEP   16
RIV   no.    1 value from time series:   101.00     for time:  168.0     to  169.0    
RIV   no.    2 value from time series:   101.00     for time:  168.0     to  169.0    
RIV   no.    3 value from time series:   111.50     for time:  168.0     to  169.0    
RIV   no.    4 value from time series:   111.50     for time:  168.0     to  169.0    
RIV   no.    5 value from time series:   115.10     for time:  168.0     to  169.0    
RIV   no.    6 value from time series:   115.10     for time:  168.0     to  169.0    
RIV   no.    7 value from time series:   104.00     for time:  168.0     to  169.0    
RIV   no.    8 value from time series:   104.00     for time:  168.0     to  169.0    
RIV   no.    9 value from time series:   113.50     for time:  168.0     to  169.0    
RIV   no.   10 value from time series:   113.50     for time:  168.0     to  169.0    
RIV   no.    1 value from time series:   101.00     for time:  168.0     to  169.0    
RIV   no.    2 value from time series:   101.00     for time:  168.0     to  169.0    
RIV   no.    3 value from time series:   111.50     for time:  168.0     to  169.0    
RIV   no.    4 value from time series:   111.50     for time:  168.0     to  169.0    
RIV   no.    5 value from time series:   115.10     for time:  168.0     to  169.0    
RIV   no.    6 value from time series:   115.10     for time:  168.0     to  169.0    
RIV   no.    7 value from time series:   104.00     for time:  168.0     to  169.0    
RIV   no.    8 value from time series:   104.00     for time:  168.0     to  169.0    
RIV   no.    9 value from time series:   113.50     for time:  168.0     to  169.0    
RIV   no.   10 value from time series:   113.50     for time:  168.0     to  169.0    

 NO OUTPUT CONTROL FOR STRESS PERIOD    7   TIME STEP   17
RIV   no.    1 value from time series:   101.00     for time:  169.0     to  170.0    
RIV   no.    2 value from time series:   101.00     for time:  169.0     to  170.0    
RIV   no.    3 value from time series:   111.50     for time:  169.0     to  170.0    
RIV   no.    4 value from time series:   111.50     for time:  169.0     to  170.0    
RIV   no.    5 value from time series:   115.10     for time:  169.0     to  170.0    
RIV   no.    6 value from time series:   115.10     for time:  169.0     to  170.0    
RIV   no.    7 value from time series:   104.00     for time:  169.0     to  170.0    
RIV   no.    8 value from time series:   104.00     for time:  169.0     to  170.0    
RIV   no.    9 value from time series:   113.50     for time:  169.0     to  170.0    
RIV   no.   10 value from time series:   113.50     for time:  169.0     to  170.0    
RIV   no.    1 value from time series:   101.00     for time:  169.0     to  170.0    
RIV   no.    2 value from time series:   101.00     for time:  169.0     to  170.0    
RIV   no.    3 value from time series:   111.50     for time:  169.0     to  170.0    
RIV   no.    4 value from time series:   111.50     for time:  169.0     to  170.0    
RIV   no.    5 value from time series:   115.10     for time:  169.0     to  170.0    
RIV   no.    6 value from time series:   115.10     for time:  169.0     to  170.0    
RIV   no.    7 value from time series:   104.00     for time:  169.0     to  170.0    
RIV   no.    8 value from time series:   104.00     for time:  169.0     to  170.0    
RIV   no.    9 value from time series:   113.50     for time:  169.0     to  170.0    
RIV   no.   10 value from time series:   113.50     for time:  169.0     to  170.0    

 NO OUTPUT CONTROL FOR STRESS PERIOD    7   TIME STEP   18
RIV   no.    1 value from time series:   101.00     for time:  170.0     to  171.0    
RIV   no.    2 value from time series:   101.00     for time:  170.0     to  171.0    
RIV   no.    3 value from time series:   111.50     for time:  170.0     to  171.0    
RIV   no.    4 value from time series:   111.50     for time:  170.0     to  171.0    
RIV   no.    5 value from time series:   115.10     for time:  170.0     to  171.0    
RIV   no.    6 value from time series:   115.10     for time:  170.0     to  171.0    
RIV   no.    7 value from time series:   104.00     for time:  170.0     to  171.0    
RIV   no.    8 value from time series:   104.00     for time:  170.0     to  171.0    
RIV   no.    9 value from time series:   113.50     for time:  170.0     to  171.0    
RIV   no.   10 value from time series:   113.50     for time:  170.0     to  171.0    
RIV   no.    1 value from time series:   101.00     for time:  170.0     to  171.0    
RIV   no.    2 value from time series:   101.00     for time:  170.0     to  171.0    
RIV   no.    3 value from time series:   111.50     for time:  170.0     to  171.0    
RIV   no.    4 value from time series:   111.50     for time:  170.0     to  171.0    
RIV   no.    5 value from time series:   115.10     for time:  170.0     to  171.0    
RIV   no.    6 value from time series:   115.10     for time:  170.0     to  171.0    
RIV   no.    7 value from time series:   104.00     for time:  170.0     to  171.0    
RIV   no.    8 value from time series:   104.00     for time:  170.0     to  171.0    
RIV   no.    9 value from time series:   113.50     for time:  170.0     to  171.0    
RIV   no.   10 value from time series:   113.50     for time:  170.0     to  171.0    

 NO OUTPUT CONTROL FOR STRESS PERIOD    7   TIME STEP   19
RIV   no.    1 value from time series:   101.00     for time:  171.0     to  172.0    
RIV   no.    2 value from time series:   101.00     for time:  171.0     to  172.0    
RIV   no.    3 value from time series:   111.50     for time:  171.0     to  172.0    
RIV   no.    4 value from time series:   111.50     for time:  171.0     to  172.0    
RIV   no.    5 value from time series:   115.10     for time:  171.0     to  172.0    
RIV   no.    6 value from time series:   115.10     for time:  171.0     to  172.0    
RIV   no.    7 value from time series:   104.00     for time:  171.0     to  172.0    
RIV   no.    8 value from time series:   104.00     for time:  171.0     to  172.0    
RIV   no.    9 value from time series:   113.50     for time:  171.0     to  172.0    
RIV   no.   10 value from time series:   113.50     for time:  171.0     to  172.0    
RIV   no.    1 value from time series:   101.00     for time:  171.0     to  172.0    
RIV   no.    2 value from time series:   101.00     for time:  171.0     to  172.0    
RIV   no.    3 value from time series:   111.50     for time:  171.0     to  172.0    
RIV   no.    4 value from time series:   111.50     for time:  171.0     to  172.0    
RIV   no.    5 value from time series:   115.10     for time:  171.0     to  172.0    
RIV   no.    6 value from time series:   115.10     for time:  171.0     to  172.0    
RIV   no.    7 value from time series:   104.00     for time:  171.0     to  172.0    
RIV   no.    8 value from time series:   104.00     for time:  171.0     to  172.0    
RIV   no.    9 value from time series:   113.50     for time:  171.0     to  172.0    
RIV   no.   10 value from time series:   113.50     for time:  171.0     to  172.0    

 NO OUTPUT CONTROL FOR STRESS PERIOD    7   TIME STEP   20
RIV   no.    1 value from time series:   101.00     for time:  172.0     to  173.0    
RIV   no.    2 value from time series:   101.00     for time:  172.0     to  173.0    
RIV   no.    3 value from time series:   111.50     for time:  172.0     to  173.0    
RIV   no.    4 value from time series:   111.50     for time:  172.0     to  173.0    
RIV   no.    5 value from time series:   115.10     for time:  172.0     to  173.0    
RIV   no.    6 value from time series:   115.10     for time:  172.0     to  173.0    
RIV   no.    7 value from time series:   104.00     for time:  172.0     to  173.0    
RIV   no.    8 value from time series:   104.00     for time:  172.0     to  173.0    
RIV   no.    9 value from time series:   113.50     for time:  172.0     to  173.0    
RIV   no.   10 value from time series:   113.50     for time:  172.0     to  173.0    
RIV   no.    1 value from time series:   101.00     for time:  172.0     to  173.0    
RIV   no.    2 value from time series:   101.00     for time:  172.0     to  173.0    
RIV   no.    3 value from time series:   111.50     for time:  172.0     to  173.0    
RIV   no.    4 value from time series:   111.50     for time:  172.0     to  173.0    
RIV   no.    5 value from time series:   115.10     for time:  172.0     to  173.0    
RIV   no.    6 value from time series:   115.10     for time:  172.0     to  173.0    
RIV   no.    7 value from time series:   104.00     for time:  172.0     to  173.0    
RIV   no.    8 value from time series:   104.00     for time:  172.0     to  173.0    
RIV   no.    9 value from time series:   113.50     for time:  172.0     to  173.0    
RIV   no.   10 value from time series:   113.50     for time:  172.0     to  173.0    

 NO OUTPUT CONTROL FOR STRESS PERIOD    7   TIME STEP   21
RIV   no.    1 value from time series:   101.00     for time:  173.0     to  174.0    
RIV   no.    2 value from time series:   101.00     for time:  173.0     to  174.0    
RIV   no.    3 value from time series:   111.50     for time:  173.0     to  174.0    
RIV   no.    4 value from time series:   111.50     for time:  173.0     to  174.0    
RIV   no.    5 value from time series:   115.10     for time:  173.0     to  174.0    
RIV   no.    6 value from time series:   115.10     for time:  173.0     to  174.0    
RIV   no.    7 value from time series:   104.00     for time:  173.0     to  174.0    
RIV   no.    8 value from time series:   104.00     for time:  173.0     to  174.0    
RIV   no.    9 value from time series:   113.50     for time:  173.0     to  174.0    
RIV   no.   10 value from time series:   113.50     for time:  173.0     to  174.0    
RIV   no.    1 value from time series:   101.00     for time:  173.0     to  174.0    
RIV   no.    2 value from time series:   101.00     for time:  173.0     to  174.0    
RIV   no.    3 value from time series:   111.50     for time:  173.0     to  174.0    
RIV   no.    4 value from time series:   111.50     for time:  173.0     to  174.0    
RIV   no.    5 value from time series:   115.10     for time:  173.0     to  174.0    
RIV   no.    6 value from time series:   115.10     for time:  173.0     to  174.0    
RIV   no.    7 value from time series:   104.00     for time:  173.0     to  174.0    
RIV   no.    8 value from time series:   104.00     for time:  173.0     to  174.0    
RIV   no.    9 value from time series:   113.50     for time:  173.0     to  174.0    
RIV   no.   10 value from time series:   113.50     for time:  173.0     to  174.0    

 NO OUTPUT CONTROL FOR STRESS PERIOD    7   TIME STEP   22
RIV   no.    1 value from time series:   101.00     for time:  174.0     to  175.0    
RIV   no.    2 value from time series:   101.00     for time:  174.0     to  175.0    
RIV   no.    3 value from time series:   111.50     for time:  174.0     to  175.0    
RIV   no.    4 value from time series:   111.50     for time:  174.0     to  175.0    
RIV   no.    5 value from time series:   115.10     for time:  174.0     to  175.0    
RIV   no.    6 value from time series:   115.10     for time:  174.0     to  175.0    
RIV   no.    7 value from time series:   104.00     for time:  174.0     to  175.0    
RIV   no.    8 value from time series:   104.00     for time:  174.0     to  175.0    
RIV   no.    9 value from time series:   113.50     for time:  174.0     to  175.0    
RIV   no.   10 value from time series:   113.50     for time:  174.0     to  175.0    
RIV   no.    1 value from time series:   101.00     for time:  174.0     to  175.0    
RIV   no.    2 value from time series:   101.00     for time:  174.0     to  175.0    
RIV   no.    3 value from time series:   111.50     for time:  174.0     to  175.0    
RIV   no.    4 value from time series:   111.50     for time:  174.0     to  175.0    
RIV   no.    5 value from time series:   115.10     for time:  174.0     to  175.0    
RIV   no.    6 value from time series:   115.10     for time:  174.0     to  175.0    
RIV   no.    7 value from time series:   104.00     for time:  174.0     to  175.0    
RIV   no.    8 value from time series:   104.00     for time:  174.0     to  175.0    
RIV   no.    9 value from time series:   113.50     for time:  174.0     to  175.0    
RIV   no.   10 value from time series:   113.50     for time:  174.0     to  175.0    

 NO OUTPUT CONTROL FOR STRESS PERIOD    7   TIME STEP   23
RIV   no.    1 value from time series:   101.00     for time:  175.0     to  176.0    
RIV   no.    2 value from time series:   101.00     for time:  175.0     to  176.0    
RIV   no.    3 value from time series:   111.50     for time:  175.0     to  176.0    
RIV   no.    4 value from time series:   111.50     for time:  175.0     to  176.0    
RIV   no.    5 value from time series:   115.10     for time:  175.0     to  176.0    
RIV   no.    6 value from time series:   115.10     for time:  175.0     to  176.0    
RIV   no.    7 value from time series:   104.00     for time:  175.0     to  176.0    
RIV   no.    8 value from time series:   104.00     for time:  175.0     to  176.0    
RIV   no.    9 value from time series:   113.50     for time:  175.0     to  176.0    
RIV   no.   10 value from time series:   113.50     for time:  175.0     to  176.0    
RIV   no.    1 value from time series:   101.00     for time:  175.0     to  176.0    
RIV   no.    2 value from time series:   101.00     for time:  175.0     to  176.0    
RIV   no.    3 value from time series:   111.50     for time:  175.0     to  176.0    
RIV   no.    4 value from time series:   111.50     for time:  175.0     to  176.0    
RIV   no.    5 value from time series:   115.10     for time:  175.0     to  176.0    
RIV   no.    6 value from time series:   115.10     for time:  175.0     to  176.0    
RIV   no.    7 value from time series:   104.00     for time:  175.0     to  176.0    
RIV   no.    8 value from time series:   104.00     for time:  175.0     to  176.0    
RIV   no.    9 value from time series:   113.50     for time:  175.0     to  176.0    
RIV   no.   10 value from time series:   113.50     for time:  175.0     to  176.0    

 NO OUTPUT CONTROL FOR STRESS PERIOD    7   TIME STEP   24
RIV   no.    1 value from time series:   101.00     for time:  176.0     to  177.0    
RIV   no.    2 value from time series:   101.00     for time:  176.0     to  177.0    
RIV   no.    3 value from time series:   111.50     for time:  176.0     to  177.0    
RIV   no.    4 value from time series:   111.50     for time:  176.0     to  177.0    
RIV   no.    5 value from time series:   115.10     for time:  176.0     to  177.0    
RIV   no.    6 value from time series:   115.10     for time:  176.0     to  177.0    
RIV   no.    7 value from time series:   104.00     for time:  176.0     to  177.0    
RIV   no.    8 value from time series:   104.00     for time:  176.0     to  177.0    
RIV   no.    9 value from time series:   113.50     for time:  176.0     to  177.0    
RIV   no.   10 value from time series:   113.50     for time:  176.0     to  177.0    
RIV   no.    1 value from time series:   101.00     for time:  176.0     to  177.0    
RIV   no.    2 value from time series:   101.00     for time:  176.0     to  177.0    
RIV   no.    3 value from time series:   111.50     for time:  176.0     to  177.0    
RIV   no.    4 value from time series:   111.50     for time:  176.0     to  177.0    
RIV   no.    5 value from time series:   115.10     for time:  176.0     to  177.0    
RIV   no.    6 value from time series:   115.10     for time:  176.0     to  177.0    
RIV   no.    7 value from time series:   104.00     for time:  176.0     to  177.0    
RIV   no.    8 value from time series:   104.00     for time:  176.0     to  177.0    
RIV   no.    9 value from time series:   113.50     for time:  176.0     to  177.0    
RIV   no.   10 value from time series:   113.50     for time:  176.0     to  177.0    

 NO OUTPUT CONTROL FOR STRESS PERIOD    7   TIME STEP   25
RIV   no.    1 value from time series:   101.00     for time:  177.0     to  178.0    
RIV   no.    2 value from time series:   101.00     for time:  177.0     to  178.0    
RIV   no.    3 value from time series:   111.50     for time:  177.0     to  178.0    
RIV   no.    4 value from time series:   111.50     for time:  177.0     to  178.0    
RIV   no.    5 value from time series:   115.10     for time:  177.0     to  178.0    
RIV   no.    6 value from time series:   115.10     for time:  177.0     to  178.0    
RIV   no.    7 value from time series:   104.00     for time:  177.0     to  178.0    
RIV   no.    8 value from time series:   104.00     for time:  177.0     to  178.0    
RIV   no.    9 value from time series:   113.50     for time:  177.0     to  178.0    
RIV   no.   10 value from time series:   113.50     for time:  177.0     to  178.0    
RIV   no.    1 value from time series:   101.00     for time:  177.0     to  178.0    
RIV   no.    2 value from time series:   101.00     for time:  177.0     to  178.0    
RIV   no.    3 value from time series:   111.50     for time:  177.0     to  178.0    
RIV   no.    4 value from time series:   111.50     for time:  177.0     to  178.0    
RIV   no.    5 value from time series:   115.10     for time:  177.0     to  178.0    
RIV   no.    6 value from time series:   115.10     for time:  177.0     to  178.0    
RIV   no.    7 value from time series:   104.00     for time:  177.0     to  178.0    
RIV   no.    8 value from time series:   104.00     for time:  177.0     to  178.0    
RIV   no.    9 value from time series:   113.50     for time:  177.0     to  178.0    
RIV   no.   10 value from time series:   113.50     for time:  177.0     to  178.0    

 NO OUTPUT CONTROL FOR STRESS PERIOD    7   TIME STEP   26
RIV   no.    1 value from time series:   101.00     for time:  178.0     to  179.0    
RIV   no.    2 value from time series:   101.00     for time:  178.0     to  179.0    
RIV   no.    3 value from time series:   111.50     for time:  178.0     to  179.0    
RIV   no.    4 value from time series:   111.50     for time:  178.0     to  179.0    
RIV   no.    5 value from time series:   115.10     for time:  178.0     to  179.0    
RIV   no.    6 value from time series:   115.10     for time:  178.0     to  179.0    
RIV   no.    7 value from time series:   104.00     for time:  178.0     to  179.0    
RIV   no.    8 value from time series:   104.00     for time:  178.0     to  179.0    
RIV   no.    9 value from time series:   113.50     for time:  178.0     to  179.0    
RIV   no.   10 value from time series:   113.50     for time:  178.0     to  179.0    
RIV   no.    1 value from time series:   101.00     for time:  178.0     to  179.0    
RIV   no.    2 value from time series:   101.00     for time:  178.0     to  179.0    
RIV   no.    3 value from time series:   111.50     for time:  178.0     to  179.0    
RIV   no.    4 value from time series:   111.50     for time:  178.0     to  179.0    
RIV   no.    5 value from time series:   115.10     for time:  178.0     to  179.0    
RIV   no.    6 value from time series:   115.10     for time:  178.0     to  179.0    
RIV   no.    7 value from time series:   104.00     for time:  178.0     to  179.0    
RIV   no.    8 value from time series:   104.00     for time:  178.0     to  179.0    
RIV   no.    9 value from time series:   113.50     for time:  178.0     to  179.0    
RIV   no.   10 value from time series:   113.50     for time:  178.0     to  179.0    

 NO OUTPUT CONTROL FOR STRESS PERIOD    7   TIME STEP   27
RIV   no.    1 value from time series:   101.00     for time:  179.0     to  180.0    
RIV   no.    2 value from time series:   101.00     for time:  179.0     to  180.0    
RIV   no.    3 value from time series:   111.50     for time:  179.0     to  180.0    
RIV   no.    4 value from time series:   111.50     for time:  179.0     to  180.0    
RIV   no.    5 value from time series:   115.10     for time:  179.0     to  180.0    
RIV   no.    6 value from time series:   115.10     for time:  179.0     to  180.0    
RIV   no.    7 value from time series:   104.00     for time:  179.0     to  180.0    
RIV   no.    8 value from time series:   104.00     for time:  179.0     to  180.0    
RIV   no.    9 value from time series:   113.50     for time:  179.0     to  180.0    
RIV   no.   10 value from time series:   113.50     for time:  179.0     to  180.0    
RIV   no.    1 value from time series:   101.00     for time:  179.0     to  180.0    
RIV   no.    2 value from time series:   101.00     for time:  179.0     to  180.0    
RIV   no.    3 value from time series:   111.50     for time:  179.0     to  180.0    
RIV   no.    4 value from time series:   111.50     for time:  179.0     to  180.0    
RIV   no.    5 value from time series:   115.10     for time:  179.0     to  180.0    
RIV   no.    6 value from time series:   115.10     for time:  179.0     to  180.0    
RIV   no.    7 value from time series:   104.00     for time:  179.0     to  180.0    
RIV   no.    8 value from time series:   104.00     for time:  179.0     to  180.0    
RIV   no.    9 value from time series:   113.50     for time:  179.0     to  180.0    
RIV   no.   10 value from time series:   113.50     for time:  179.0     to  180.0    

 NO OUTPUT CONTROL FOR STRESS PERIOD    7   TIME STEP   28
RIV   no.    1 value from time series:   101.00     for time:  180.0     to  181.0    
RIV   no.    2 value from time series:   101.00     for time:  180.0     to  181.0    
RIV   no.    3 value from time series:   111.50     for time:  180.0     to  181.0    
RIV   no.    4 value from time series:   111.50     for time:  180.0     to  181.0    
RIV   no.    5 value from time series:   115.10     for time:  180.0     to  181.0    
RIV   no.    6 value from time series:   115.10     for time:  180.0     to  181.0    
RIV   no.    7 value from time series:   104.00     for time:  180.0     to  181.0    
RIV   no.    8 value from time series:   104.00     for time:  180.0     to  181.0    
RIV   no.    9 value from time series:   113.50     for time:  180.0     to  181.0    
RIV   no.   10 value from time series:   113.50     for time:  180.0     to  181.0    

 RchArraySeries           =  3.000000E-03 FOR LAYER   1

 EtsArraySeries           =  5.000000E-04 FOR LAYER   1
RIV   no.    1 value from time series:   101.00     for time:  180.0     to  181.0    
RIV   no.    2 value from time series:   101.00     for time:  180.0     to  181.0    
RIV   no.    3 value from time series:   111.50     for time:  180.0     to  181.0    
RIV   no.    4 value from time series:   111.50     for time:  180.0     to  181.0    
RIV   no.    5 value from time series:   115.10     for time:  180.0     to  181.0    
RIV   no.    6 value from time series:   115.10     for time:  180.0     to  181.0    
RIV   no.    7 value from time series:   104.00     for time:  180.0     to  181.0    
RIV   no.    8 value from time series:   104.00     for time:  180.0     to  181.0    
RIV   no.    9 value from time series:   113.50     for time:  180.0     to  181.0    
RIV   no.   10 value from time series:   113.50     for time:  180.0     to  181.0    

 NO OUTPUT CONTROL FOR STRESS PERIOD    7   TIME STEP   29
RIV   no.    1 value from time series:   101.00     for time:  181.0     to  182.0    
RIV   no.    2 value from time series:   101.00     for time:  181.0     to  182.0    
RIV   no.    3 value from time series:   111.50     for time:  181.0     to  182.0    
RIV   no.    4 value from time series:   111.50     for time:  181.0     to  182.0    
RIV   no.    5 value from time series:   115.10     for time:  181.0     to  182.0    
RIV   no.    6 value from time series:   115.10     for time:  181.0     to  182.0    
RIV   no.    7 value from time series:   104.00     for time:  181.0     to  182.0    
RIV   no.    8 value from time series:   104.00     for time:  181.0     to  182.0    
RIV   no.    9 value from time series:   113.50     for time:  181.0     to  182.0    
RIV   no.   10 value from time series:   113.50     for time:  181.0     to  182.0    
RIV   no.    1 value from time series:   101.00     for time:  181.0     to  182.0    
RIV   no.    2 value from time series:   101.00     for time:  181.0     to  182.0    
RIV   no.    3 value from time series:   111.50     for time:  181.0     to  182.0    
RIV   no.    4 value from time series:   111.50     for time:  181.0     to  182.0    
RIV   no.    5 value from time series:   115.10     for time:  181.0     to  182.0    
RIV   no.    6 value from time series:   115.10     for time:  181.0     to  182.0    
RIV   no.    7 value from time series:   104.00     for time:  181.0     to  182.0    
RIV   no.    8 value from time series:   104.00     for time:  181.0     to  182.0    
RIV   no.    9 value from time series:   113.50     for time:  181.0     to  182.0    
RIV   no.   10 value from time series:   113.50     for time:  181.0     to  182.0    

 OUTPUT CONTROL FOR STRESS PERIOD    7   TIME STEP   30
    PRINT BUDGET
    PRINT HEAD
    PRINT HEAD FOR ALL LAYERS
    SAVE BUDGET
    SAVE HEAD
    SAVE HEAD FOR ALL LAYERS
 UBDSV1 SAVING          STORAGE ON UNIT   1016 AT TIME STEP     30, STRESS PERIOD      7
 UBDSV1 SAVING FLOW RIGHT FACE  ON UNIT   1016 AT TIME STEP     30, STRESS PERIOD      7
 UBDSV1 SAVING FLOW FRONT FACE  ON UNIT   1016 AT TIME STEP     30, STRESS PERIOD      7
 UBDSV1 SAVING FLOW LOWER FACE  ON UNIT   1016 AT TIME STEP     30, STRESS PERIOD      7
 UBDSV4 SAVING WELLS NEAR RIVER ON UNIT   1016 AT TIME STEP     30, STRESS PERIOD      7
 UBDSV4 SAVING RIVER            ON UNIT   1016 AT TIME STEP     30, STRESS PERIOD      7

 RIVER              PERIOD  7   STEP 30
 BOUNDARY      1   LAYER   1   ROW     1   COL    15   RATE    -5240.97    
 BOUNDARY      2   LAYER   1   ROW     2   COL    15   RATE    -6370.53      RIV2
 BOUNDARY      3   LAYER   1   ROW     3   COL    15   RATE    -2630.22      RIV3
 BOUNDARY      4   LAYER   1   ROW     4   COL    15   RATE    -4097.63    
 BOUNDARY      5   LAYER   1   ROW     5   COL    15   RATE    -2731.38    
 BOUNDARY      6   LAYER   1   ROW     6   COL    15   RATE    -2077.25    
 BOUNDARY      7   LAYER   1   ROW     7   COL    15   RATE    -6572.85      RIVX
 BOUNDARY      8   LAYER   1   ROW     8   COL    15   RATE    -6425.53      RIVX
 BOUNDARY      9   LAYER   1   ROW     9   COL    15   RATE    -2630.66      RIVX
 BOUNDARY     10   LAYER   1   ROW    10   COL    15   RATE    -3540.98    

 GHB LAKES          PERIOD  7   STEP 30
 BOUNDARY      1   LAYER   1   ROW     3   COL     1   RATE    -15444.8    
 BOUNDARY      2   LAYER   1   ROW     7   COL     1   RATE    -2610.48      GHB2_UPPER
 BOUNDARY      3   LAYER   1   ROW     7   COL     1   RATE    -13510.9      GHB2_LOWER
 UBDSV4 SAVING RECHARGE         ON UNIT   1016 AT TIME STEP     30, STRESS PERIOD      7

 RECHARGE           PERIOD  7   STEP 30
 BOUNDARY      1   LAYER   1   ROW     1   COL     1   RATE     920.625    
 BOUNDARY      2   LAYER   1   ROW     1   COL     2   RATE     920.625    
 BOUNDARY      3   LAYER   1   ROW     1   COL     3   RATE     920.625    
 BOUNDARY      4   LAYER   1   ROW     1   COL     4   RATE     920.625    
 BOUNDARY      5   LAYER   1   ROW     1   COL     5   RATE     920.625    
 BOUNDARY      6   LAYER   1   ROW     1   COL     6   RATE     920.625    
 BOUNDARY      7   LAYER   1   ROW     1   COL     7   RATE     920.625    
 BOUNDARY      8   LAYER   1   ROW     1   COL     8   RATE     920.625    
 BOUNDARY      9   LAYER   1   ROW     1   COL     9   RATE     920.625    
 BOUNDARY     10   LAYER   1   ROW     1   COL    10   RATE     920.625    
 BOUNDARY     11   LAYER   1   ROW     1   COL    11   RATE     920.625    
 BOUNDARY     12   LAYER   1   ROW     1   COL    12   RATE     920.625    
 BOUNDARY     13   LAYER   1   ROW     1   COL    13   RATE     920.625    
 BOUNDARY     14   LAYER   1   ROW     1   COL    14   RATE     920.625    
 BOUNDARY     15   LAYER   1   ROW     1   COL    15   RATE     920.625    
 BOUNDARY     16   LAYER   1   ROW     2   COL     1   RATE     920.625    
 BOUNDARY     17   LAYER   1   ROW     2   COL     2   RATE     920.625    
 BOUNDARY     18   LAYER   1   ROW     2   COL     3   RATE     920.625    
 BOUNDARY     19   LAYER   1   ROW     2   COL     4   RATE     920.625    
 BOUNDARY     20   LAYER   1   ROW     2   COL     5   RATE     920.625    
 BOUNDARY     21   LAYER   1   ROW     2   COL     6   RATE     920.625    
 BOUNDARY     22   LAYER   1   ROW     2   COL     7   RATE     920.625    
 BOUNDARY     23   LAYER   1   ROW     2   COL     8   RATE     920.625    
 BOUNDARY     24   LAYER   1   ROW     2   COL     9   RATE     920.625    
 BOUNDARY     25   LAYER   1   ROW     2   COL    10   RATE     920.625    
 BOUNDARY     26   LAYER   1   ROW     2   COL    11   RATE     920.625    
 BOUNDARY     27   LAYER   1   ROW     2   COL    12   RATE     920.625    
 BOUNDARY     28   LAYER   1   ROW     2   COL    13   RATE     920.625    
 BOUNDARY     29   LAYER   1   ROW     2   COL    14   RATE     920.625    
 BOUNDARY     30   LAYER   1   ROW     2   COL    15   RATE     920.625    
 BOUNDARY     31   LAYER   1   ROW     3   COL     1   RATE     920.625    
 BOUNDARY     32   LAYER   1   ROW     3   COL     2   RATE     920.625    
 BOUNDARY     33   LAYER   1   ROW     3   COL     3   RATE     920.625    
 BOUNDARY     34   LAYER   1   ROW     3   COL     4   RATE     920.625    
 BOUNDARY     35   LAYER   1   ROW     3   COL     5   RATE     920.625    
 BOUNDARY     36   LAYER   1   ROW     3   COL     6   RATE     920.625    
 BOUNDARY     37   LAYER   1   ROW     3   COL     7   RATE     920.625    
 BOUNDARY     38   LAYER   1   ROW     3   COL     8   RATE     920.625    
 BOUNDARY     39   LAYER   1   ROW     3   COL     9   RATE     920.625    
 BOUNDARY     40   LAYER   1   ROW     3   COL    10   RATE     920.625    
 BOUNDARY     41   LAYER   1   ROW     3   COL    11   RATE     920.625    
 BOUNDARY     42   LAYER   1   ROW     3   COL    12   RATE     920.625    
 BOUNDARY     43   LAYER   1   ROW     3   COL    13   RATE     920.625    
 BOUNDARY     44   LAYER   1   ROW     3   COL    14   RATE     920.625    
 BOUNDARY     45   LAYER   1   ROW     3   COL    15   RATE     920.625    
 BOUNDARY     46   LAYER   1   ROW     4   COL     1   RATE     920.625    
 BOUNDARY     47   LAYER   1   ROW     4   COL     2   RATE     920.625    
 BOUNDARY     48   LAYER   1   ROW     4   COL     3   RATE     920.625    
 BOUNDARY     49   LAYER   1   ROW     4   COL     4   RATE     920.625    
 BOUNDARY     50   LAYER   1   ROW     4   COL     5   RATE     920.625    
 BOUNDARY     51   LAYER   1   ROW     4   COL     6   RATE     920.625    
 BOUNDARY     52   LAYER   1   ROW     4   COL     7   RATE     920.625    
 BOUNDARY     53   LAYER   1   ROW     4   COL     8   RATE     920.625    
 BOUNDARY     54   LAYER   1   ROW     4   COL     9   RATE     920.625    
 BOUNDARY     55   LAYER   1   ROW     4   COL    10   RATE     920.625    
 BOUNDARY     56   LAYER   1   ROW     4   COL    11   RATE     920.625    
 BOUNDARY     57   LAYER   1   ROW     4   COL    12   RATE     920.625    
 BOUNDARY     58   LAYER   1   ROW     4   COL    13   RATE     920.625    
 BOUNDARY     59   LAYER   1   ROW     4   COL    14   RATE     920.625    
 BOUNDARY     60   LAYER   1   ROW     4   COL    15   RATE     920.625    
 BOUNDARY     61   LAYER   1   ROW     5   COL     1   RATE     920.625    
 BOUNDARY     62   LAYER   1   ROW     5   COL     2   RATE     920.625    
 BOUNDARY     63   LAYER   1   ROW     5   COL     3   RATE     920.625    
 BOUNDARY     64   LAYER   1   ROW     5   COL     4   RATE     920.625    
 BOUNDARY     65   LAYER   1   ROW     5   COL     5   RATE     920.625    
 BOUNDARY     66   LAYER   1   ROW     5   COL     6   RATE     920.625    
 BOUNDARY     67   LAYER   1   ROW     5   COL     7   RATE     920.625    
 BOUNDARY     68   LAYER   1   ROW     5   COL     8   RATE     920.625    
 BOUNDARY     69   LAYER   1   ROW     5   COL     9   RATE     920.625    
 BOUNDARY     70   LAYER   1   ROW     5   COL    10   RATE     920.625    
 BOUNDARY     71   LAYER   1   ROW     5   COL    11   RATE     920.625    
 BOUNDARY     72   LAYER   1   ROW     5   COL    12   RATE     920.625    
 BOUNDARY     73   LAYER   1   ROW     5   COL    13   RATE     920.625    
 BOUNDARY     74   LAYER   1   ROW     5   COL    14   RATE     920.625    
 BOUNDARY     75   LAYER   1   ROW     5   COL    15   RATE     920.625    
 BOUNDARY     76   LAYER   1   ROW     6   COL     1   RATE     920.625    
 BOUNDARY     77   LAYER   1   ROW     6   COL     2   RATE     920.625    
 BOUNDARY     78   LAYER   1   ROW     6   COL     3   RATE     920.625    
 BOUNDARY     79   LAYER   1   ROW     6   COL     4   RATE     920.625    
 BOUNDARY     80   LAYER   1   ROW     6   COL     5   RATE     920.625    
 BOUNDARY     81   LAYER   1   ROW     6   COL     6   RATE     920.625    
 BOUNDARY     82   LAYER   1   ROW     6   COL     7   RATE     920.625    
 BOUNDARY     83   LAYER   1   ROW     6   COL     8   RATE     920.625    
 BOUNDARY     84   LAYER   1   ROW     6   COL     9   RATE     920.625    
 BOUNDARY     85   LAYER   1   ROW     6   COL    10   RATE     920.625    
 BOUNDARY     86   LAYER   1   ROW     6   COL    11   RATE     920.625    
 BOUNDARY     87   LAYER   1   ROW     6   COL    12   RATE     920.625    
 BOUNDARY     88   LAYER   1   ROW     6   COL    13   RATE     920.625    
 BOUNDARY     89   LAYER   1   ROW     6   COL    14   RATE     920.625    
 BOUNDARY     90   LAYER   1   ROW     6   COL    15   RATE     920.625    
 BOUNDARY     91   LAYER   1   ROW     7   COL     1   RATE     920.625    
 BOUNDARY     92   LAYER   1   ROW     7   COL     2   RATE     920.625    
 BOUNDARY     93   LAYER   1   ROW     7   COL     3   RATE     920.625    
 BOUNDARY     94   LAYER   1   ROW     7   COL     4   RATE     920.625    
 BOUNDARY     95   LAYER   1   ROW     7   COL     5   RATE     920.625    
 BOUNDARY     96   LAYER   1   ROW     7   COL     6   RATE     920.625    
 BOUNDARY     97   LAYER   1   ROW     7   COL     7   RATE     920.625    
 BOUNDARY     98   LAYER   1   ROW     7   COL     8   RATE     920.625    
 BOUNDARY     99   LAYER   1   ROW     7   COL     9   RATE     920.625    
 BOUNDARY    100   LAYER   1   ROW     7   COL    10   RATE     920.625    
 BOUNDARY    101   LAYER   1   ROW     7   COL    11   RATE     920.625    
 BOUNDARY    102   LAYER   1   ROW     7   COL    12   RATE     920.625    
 BOUNDARY    103   LAYER   1   ROW     7   COL    13   RATE     920.625    
 BOUNDARY    104   LAYER   1   ROW     7   COL    14   RATE     920.625    
 BOUNDARY    105   LAYER   1   ROW     7   COL    15   RATE     920.625    
 BOUNDARY    106   LAYER   1   ROW     8   COL     1   RATE     920.625    
 BOUNDARY    107   LAYER   1   ROW     8   COL     2   RATE     920.625    
 BOUNDARY    108   LAYER   1   ROW     8   COL     3   RATE     920.625    
 BOUNDARY    109   LAYER   1   ROW     8   COL     4   RATE     920.625    
 BOUNDARY    110   LAYER   1   ROW     8   COL     5   RATE     920.625    
 BOUNDARY    111   LAYER   1   ROW     8   COL     6   RATE     920.625    
 BOUNDARY    112   LAYER   1   ROW     8   COL     7   RATE     920.625    
 BOUNDARY    113   LAYER   1   ROW     8   COL     8   RATE     920.625    
 BOUNDARY    114   LAYER   1   ROW     8   COL     9   RATE     920.625    
 BOUNDARY    115   LAYER   1   ROW     8   COL    10   RATE     920.625    
 BOUNDARY    116   LAYER   1   ROW     8   COL    11   RATE     920.625    
 BOUNDARY    117   LAYER   1   ROW     8   COL    12   RATE     920.625    
 BOUNDARY    118   LAYER   1   ROW     8   COL    13   RATE     920.625    
 BOUNDARY    119   LAYER   1   ROW     8   COL    14   RATE     920.625    
 BOUNDARY    120   LAYER   1   ROW     8   COL    15   RATE     920.625    
 BOUNDARY    121   LAYER   1   ROW     9   COL     1   RATE     920.625    
 BOUNDARY    122   LAYER   1   ROW     9   COL     2   RATE     920.625    
 BOUNDARY    123   LAYER   1   ROW     9   COL     3   RATE     920.625    
 BOUNDARY    124   LAYER   1   ROW     9   COL     4   RATE     920.625    
 BOUNDARY    125   LAYER   1   ROW     9   COL     5   RATE     920.625    
 BOUNDARY    126   LAYER   1   ROW     9   COL     6   RATE     920.625    
 BOUNDARY    127   LAYER   1   ROW     9   COL     7   RATE     920.625    
 BOUNDARY    128   LAYER   1   ROW     9   COL     8   RATE     920.625    
 BOUNDARY    129   LAYER   1   ROW     9   COL     9   RATE     920.625    
 BOUNDARY    130   LAYER   1   ROW     9   COL    10   RATE     920.625    
 BOUNDARY    131   LAYER   1   ROW     9   COL    11   RATE     920.625    
 BOUNDARY    132   LAYER   1   ROW     9   COL    12   RATE     920.625    
 BOUNDARY    133   LAYER   1   ROW     9   COL    13   RATE     920.625    
 BOUNDARY    134   LAYER   1   ROW     9   COL    14   RATE     920.625    
 BOUNDARY    135   LAYER   1   ROW     9   COL    15   RATE     920.625    
 BOUNDARY    136   LAYER   1   ROW    10   COL     1   RATE     920.625    
 BOUNDARY    137   LAYER   1   ROW    10   COL     2   RATE     920.625    
 BOUNDARY    138   LAYER   1   ROW    10   COL     3   RATE     920.625    
 BOUNDARY    139   LAYER   1   ROW    10   COL     4   RATE     920.625    
 BOUNDARY    140   LAYER   1   ROW    10   COL     5   RATE     920.625    
 BOUNDARY    141   LAYER   1   ROW    10   COL     6   RATE     920.625    
 BOUNDARY    142   LAYER   1   ROW    10   COL     7   RATE     920.625    
 BOUNDARY    143   LAYER   1   ROW    10   COL     8   RATE     920.625    
 BOUNDARY    144   LAYER   1   ROW    10   COL     9   RATE     920.625    
 BOUNDARY    145   LAYER   1   ROW    10   COL    10   RATE     920.625    
 BOUNDARY    146   LAYER   1   ROW    10   COL    11   RATE     920.625    
 BOUNDARY    147   LAYER   1   ROW    10   COL    12   RATE     920.625    
 BOUNDARY    148   LAYER   1   ROW    10   COL    13   RATE     920.625    
 BOUNDARY    149   LAYER   1   ROW    10   COL    14   RATE     920.625    
 BOUNDARY    150   LAYER   1   ROW    10   COL    15   RATE     920.625    
 UBDSV4 SAVING ET SEGS          ON UNIT   1016 AT TIME STEP     30, STRESS PERIOD      7

 ET SEGS            PERIOD  7   STEP 30
 BOUNDARY      1   LAYER   1   ROW     1   COL     1   RATE    -7.55793    
 BOUNDARY      2   LAYER   1   ROW     1   COL     2   RATE    -24.5886    
 BOUNDARY      3   LAYER   1   ROW     1   COL     3   RATE    -148.182    
 BOUNDARY      4   LAYER   1   ROW     1   COL     4   RATE    -149.375    
 BOUNDARY      5   LAYER   1   ROW     1   COL     5   RATE    -149.375    
 BOUNDARY      6   LAYER   1   ROW     1   COL     6   RATE    -149.375    
 BOUNDARY      7   LAYER   1   ROW     1   COL     7   RATE    -149.375    
 BOUNDARY      8   LAYER   1   ROW     1   COL     8   RATE    -149.375    
 BOUNDARY      9   LAYER   1   ROW     1   COL     9   RATE    -149.375    
 BOUNDARY     10   LAYER   1   ROW     1   COL    10   RATE    -149.375    
 BOUNDARY     11   LAYER   1   ROW     1   COL    11   RATE    -149.375    
 BOUNDARY     12   LAYER   1   ROW     1   COL    12   RATE    -40.1008    
 BOUNDARY     13   LAYER   1   ROW     1   COL    13   RATE    -3.07262    
 BOUNDARY     14   LAYER   1   ROW     1   COL    14   RATE     0.00000    
 BOUNDARY     15   LAYER   1   ROW     1   COL    15   RATE     0.00000    
 BOUNDARY     16   LAYER   1   ROW     2   COL     1   RATE     0.00000    
 BOUNDARY     17   LAYER   1   ROW     2   COL     2   RATE    -10.9795    
 BOUNDARY     18   LAYER   1   ROW     2   COL     3   RATE    -106.491    
 BOUNDARY     19   LAYER   1   ROW     2   COL     4   RATE    -149.375    
 BOUNDARY     20   LAYER   1   ROW     2   COL     5   RATE    -149.375    
 BOUNDARY     21   LAYER   1   ROW     2   COL     6   RATE    -149.375    
 BOUNDARY     22   LAYER   1   ROW     2   COL     7   RATE    -149.375    
 BOUNDARY     23   LAYER   1   ROW     2   COL     8   RATE    -149.375    
 BOUNDARY     24   LAYER   1   ROW     2   COL     9   RATE    -149.375    
 BOUNDARY     25   LAYER   1   ROW     2   COL    10   RATE    -149.375    
 BOUNDARY     26   LAYER   1   ROW     2   COL    11   RATE    -149.375    
 BOUNDARY     27   LAYER   1   ROW     2   COL    12   RATE    -42.6934    
 BOUNDARY     28   LAYER   1   ROW     2   COL    13   RATE    -4.54243    
 BOUNDARY     29   LAYER   1   ROW     2   COL    14   RATE     0.00000    
 BOUNDARY     30   LAYER   1   ROW     2   COL    15   RATE     0.00000    
 BOUNDARY     31   LAYER   1   ROW     3   COL     1   RATE     0.00000    
 BOUNDARY     32   LAYER   1   ROW     3   COL     2   RATE   -0.456284    
 BOUNDARY     33   LAYER   1   ROW     3   COL     3   RATE    -60.0559    
 BOUNDARY     34   LAYER   1   ROW     3   COL     4   RATE    -149.375    
 BOUNDARY     35   LAYER   1   ROW     3   COL     5   RATE    -149.375    
 BOUNDARY     36   LAYER   1   ROW     3   COL     6   RATE    -149.375    
 BOUNDARY     37   LAYER   1   ROW     3   COL     7   RATE    -149.375    
 BOUNDARY     38   LAYER   1   ROW     3   COL     8   RATE    -149.375    
 BOUNDARY     39   LAYER   1   ROW     3   COL     9   RATE    -149.375    
 BOUNDARY     40   LAYER   1   ROW     3   COL    10   RATE    -149.375    
 BOUNDARY     41   LAYER   1   ROW     3   COL    11   RATE    -149.375    
 BOUNDARY     42   LAYER   1   ROW     3   COL    12   RATE    -56.3941    
 BOUNDARY     43   LAYER   1   ROW     3   COL    13   RATE    -7.21196    
 BOUNDARY     44   LAYER   1   ROW     3   COL    14   RATE     0.00000    
 BOUNDARY     45   LAYER   1   ROW     3   COL    15   RATE     0.00000    
 BOUNDARY     46   LAYER   1   ROW     4   COL     1   RATE     0.00000    
 BOUNDARY     47   LAYER   1   ROW     4   COL     2   RATE    -8.71134    
 BOUNDARY     48   LAYER   1   ROW     4   COL     3   RATE    -90.3422    
 BOUNDARY     49   LAYER   1   ROW     4   COL     4   RATE    -149.375    
 BOUNDARY     50   LAYER   1   ROW     4   COL     5   RATE    -149.375    
 BOUNDARY     51   LAYER   1   ROW     4   COL     6   RATE    -149.375    
 BOUNDARY     52   LAYER   1   ROW     4   COL     7   RATE    -149.375    
 BOUNDARY     53   LAYER   1   ROW     4   COL     8   RATE    -149.375    
 BOUNDARY     54   LAYER   1   ROW     4   COL     9   RATE    -149.375    
 BOUNDARY     55   LAYER   1   ROW     4   COL    10   RATE    -149.375    
 BOUNDARY     56   LAYER   1   ROW     4   COL    11   RATE    -149.375    
 BOUNDARY     57   LAYER   1   ROW     4   COL    12   RATE    -77.4171    
 BOUNDARY     58   LAYER   1   ROW     4   COL    13   RATE    -9.35628    
 BOUNDARY     59   LAYER   1   ROW     4   COL    14   RATE     0.00000    
 BOUNDARY     60   LAYER   1   ROW     4   COL    15   RATE     0.00000    
 BOUNDARY     61   LAYER   1   ROW     5   COL     1   RATE     0.00000    
 BOUNDARY     62   LAYER   1   ROW     5   COL     2   RATE    -13.2219    
 BOUNDARY     63   LAYER   1   ROW     5   COL     3   RATE    -120.766    
 BOUNDARY     64   LAYER   1   ROW     5   COL     4   RATE    -149.375    
 BOUNDARY     65   LAYER   1   ROW     5   COL     5   RATE    -149.375    
 BOUNDARY     66   LAYER   1   ROW     5   COL     6   RATE    -149.375    
 BOUNDARY     67   LAYER   1   ROW     5   COL     7   RATE    -149.375    
 BOUNDARY     68   LAYER   1   ROW     5   COL     8   RATE    -149.375    
 BOUNDARY     69   LAYER   1   ROW     5   COL     9   RATE    -149.375    
 BOUNDARY     70   LAYER   1   ROW     5   COL    10   RATE    -149.375    
 BOUNDARY     71   LAYER   1   ROW     5   COL    11   RATE    -149.375    
 BOUNDARY     72   LAYER   1   ROW     5   COL    12   RATE    -91.6483    
 BOUNDARY     73   LAYER   1   ROW     5   COL    13   RATE    -10.6479    
 BOUNDARY     74   LAYER   1   ROW     5   COL    14   RATE     0.00000    
 BOUNDARY     75   LAYER   1   ROW     5   COL    15   RATE     0.00000    
 BOUNDARY     76   LAYER   1   ROW     6   COL     1   RATE     0.00000    
 BOUNDARY     77   LAYER   1   ROW     6   COL     2   RATE    -10.9561    
 BOUNDARY     78   LAYER   1   ROW     6   COL     3   RATE    -125.686    
 BOUNDARY     79   LAYER   1   ROW     6   COL     4   RATE    -149.375    
 BOUNDARY     80   LAYER   1   ROW     6   COL     5   RATE    -149.375    
 BOUNDARY     81   LAYER   1   ROW     6   COL     6   RATE    -149.375    
 BOUNDARY     82   LAYER   1   ROW     6   COL     7   RATE    -149.375    
 BOUNDARY     83   LAYER   1   ROW     6   COL     8   RATE    -149.375    
 BOUNDARY     84   LAYER   1   ROW     6   COL     9   RATE    -149.375    
 BOUNDARY     85   LAYER   1   ROW     6   COL    10   RATE    -149.375    
 BOUNDARY     86   LAYER   1   ROW     6   COL    11   RATE    -149.375    
 BOUNDARY     87   LAYER   1   ROW     6   COL    12   RATE    -96.3693    
 BOUNDARY     88   LAYER   1   ROW     6   COL    13   RATE    -10.5673    
 BOUNDARY     89   LAYER   1   ROW     6   COL    14   RATE     0.00000    
 BOUNDARY     90   LAYER   1   ROW     6   COL    15   RATE     0.00000    
 BOUNDARY     91   LAYER   1   ROW     7   COL     1   RATE     0.00000    
 BOUNDARY     92   LAYER   1   ROW     7   COL     2   RATE    -5.42491    
 BOUNDARY     93   LAYER   1   ROW     7   COL     3   RATE    -135.213    
 BOUNDARY     94   LAYER   1   ROW     7   COL     4   RATE    -149.375    
 BOUNDARY     95   LAYER   1   ROW     7   COL     5   RATE    -149.375    
 BOUNDARY     96   LAYER   1   ROW     7   COL     6   RATE    -149.375    
 BOUNDARY     97   LAYER   1   ROW     7   COL     7   RATE    -149.375    
 BOUNDARY     98   LAYER   1   ROW     7   COL     8   RATE    -149.375    
 BOUNDARY     99   LAYER   1   ROW     7   COL     9   RATE    -149.375    
 BOUNDARY    100   LAYER   1   ROW     7   COL    10   RATE    -149.375    
 BOUNDARY    101   LAYER   1   ROW     7   COL    11   RATE    -149.375    
 BOUNDARY    102   LAYER   1   ROW     7   COL    12   RATE    -95.3466    
 BOUNDARY    103   LAYER   1   ROW     7   COL    13   RATE    -9.51825    
 BOUNDARY    104   LAYER   1   ROW     7   COL    14   RATE     0.00000    
 BOUNDARY    105   LAYER   1   ROW     7   COL    15   RATE     0.00000    
 BOUNDARY    106   LAYER   1   ROW     8   COL     1   RATE    -1.41624    
 BOUNDARY    107   LAYER   1   ROW     8   COL     2   RATE    -30.8336    
 BOUNDARY    108   LAYER   1   ROW     8   COL     3   RATE    -149.375    
 BOUNDARY    109   LAYER   1   ROW     8   COL     4   RATE    -149.375    
 BOUNDARY    110   LAYER   1   ROW     8   COL     5   RATE    -149.375    
 BOUNDARY    111   LAYER   1   ROW     8   COL     6   RATE    -149.375    
 BOUNDARY    112   LAYER   1   ROW     8   COL     7   RATE    -149.375    
 BOUNDARY    113   LAYER   1   ROW     8   COL     8   RATE    -149.375    
 BOUNDARY    114   LAYER   1   ROW     8   COL     9   RATE    -149.375    
 BOUNDARY    115   LAYER   1   ROW     8   COL    10   RATE    -149.375    
 BOUNDARY    116   LAYER   1   ROW     8   COL    11   RATE    -149.375    
 BOUNDARY    117   LAYER   1   ROW     8   COL    12   RATE    -98.7601    
 BOUNDARY    118   LAYER   1   ROW     8   COL    13   RATE    -9.59760    
 BOUNDARY    119   LAYER   1   ROW     8   COL    14   RATE     0.00000    
 BOUNDARY    120   LAYER   1   ROW     8   COL    15   RATE     0.00000    
 BOUNDARY    121   LAYER   1   ROW     9   COL     1   RATE    -42.2874    
 BOUNDARY    122   LAYER   1   ROW     9   COL     2   RATE    -149.375    
 BOUNDARY    123   LAYER   1   ROW     9   COL     3   RATE    -149.375    
 BOUNDARY    124   LAYER   1   ROW     9   COL     4   RATE    -149.375    
 BOUNDARY    125   LAYER   1   ROW     9   COL     5   RATE    -149.375    
 BOUNDARY    126   LAYER   1   ROW     9   COL     6   RATE    -149.375    
 BOUNDARY    127   LAYER   1   ROW     9   COL     7   RATE    -149.375    
 BOUNDARY    128   LAYER   1   ROW     9   COL     8   RATE    -149.375    
 BOUNDARY    129   LAYER   1   ROW     9   COL     9   RATE    -149.375    
 BOUNDARY    130   LAYER   1   ROW     9   COL    10   RATE    -149.375    
 BOUNDARY    131   LAYER   1   ROW     9   COL    11   RATE    -149.375    
 BOUNDARY    132   LAYER   1   ROW     9   COL    12   RATE    -107.634    
 BOUNDARY    133   LAYER   1   ROW     9   COL    13   RATE    -10.9073    
 BOUNDARY    134   LAYER   1   ROW     9   COL    14   RATE     0.00000    
 BOUNDARY    135   LAYER   1   ROW     9   COL    15   RATE     0.00000    
 BOUNDARY    136   LAYER   1   ROW    10   COL     1   RATE    -149.375    
 BOUNDARY    137   LAYER   1   ROW    10   COL     2   RATE    -149.375    
 BOUNDARY    138   LAYER   1   ROW    10   COL     3   RATE    -149.375    
 BOUNDARY    139   LAYER   1   ROW    10   COL     4   RATE    -149.375    
 BOUNDARY    140   LAYER   1   ROW    10   COL     5   RATE    -149.375    
 BOUNDARY    141   LAYER   1   ROW    10   COL     6   RATE    -149.375    
 BOUNDARY    142   LAYER   1   ROW    10   COL     7   RATE    -149.375    
 BOUNDARY    143   LAYER   1   ROW    10   COL     8   RATE    -149.375    
 BOUNDARY    144   LAYER   1   ROW    10   COL     9   RATE    -149.375    
 BOUNDARY    145   LAYER   1   ROW    10   COL    10   RATE    -149.375    
 BOUNDARY    146   LAYER   1   ROW    10   COL    11   RATE    -149.375    
 BOUNDARY    147   LAYER   1   ROW    10   COL    12   RATE    -113.974    
 BOUNDARY    148   LAYER   1   ROW    10   COL    13   RATE    -11.7424    
 BOUNDARY    149   LAYER   1   ROW    10   COL    14   RATE     0.00000    
 BOUNDARY    150   LAYER   1   ROW    10   COL    15   RATE     0.00000    
1
  HEAD             IN LAYER   1 AT END OF TIME STEP  30 IN STRESS PERIOD    7
  ---------------------------------------------------------------------------

           1          2          3          4          5          6          7          8
 ........................................................................................
   1   132.52985  135.96915  139.97717  143.50426  146.18418  147.92730  148.72301  148.56976
   2   127.10165  133.67514  139.17974  143.23579  146.11009  147.92555  148.75057  148.61366
   3   110.27597  130.15273  138.29157  142.99691  146.07484  147.96313  148.81850  148.70095
   4   125.83107  132.91593  138.87086  143.18650  146.19948  148.08069  148.93792  148.82728
   5   129.69418  134.42575  139.45279  143.50554  146.42908  148.26999  149.10454  148.98291
   6   126.53287  133.66730  139.54689  143.79766  146.71901  148.51547  149.30791  149.15652
   7   111.86064  131.81587  139.72912  144.24847  147.11265  148.81736  149.53749  149.33694
   8   130.47405  136.59626  141.55779  145.16845  147.65073  149.16125  149.77354  149.50862
   9   137.74643  140.29433  143.38315  146.10817  148.16979  149.47221  149.99458  149.64897
  10   140.52424  142.12223  144.41515  146.67045  148.48347  149.67749  150.40412  149.74946
1
  HEAD             IN LAYER   1 AT END OF TIME STEP  30 IN STRESS PERIOD    7
  ---------------------------------------------------------------------------

           9         10         11         12         13         14         15
 .............................................................................
   1   147.44947  145.31331  142.06465  137.52686  131.02849  121.51355  106.23574
   2   147.51073  145.40383  142.21192  137.78720  131.52048  122.41450  107.35781
   3   147.62256  145.56052  142.45848  138.22152  132.41405  124.55537  114.12235
   4   147.76653  145.74293  142.71725  138.62364  133.13181  125.79549  115.58131
   5   147.92351  145.91632  142.92644  138.89584  133.56414  126.62006  117.81779
   6   148.07960  146.06266  143.05978  138.98614  133.53717  126.29616  117.16486
   7   148.22764  146.18485  143.14310  138.96658  133.18602  124.74274  110.52716
   8   148.36150  146.29497  143.23408  139.03187  133.21259  124.68744  110.37454
   9   148.46783  146.38865  143.33863  139.20161  133.65099  126.11513  116.10719
  10   148.52862  146.44403  143.40786  139.32287  133.93050  126.73372  117.00592
1
  HEAD             IN LAYER   2 AT END OF TIME STEP  30 IN STRESS PERIOD    7
  ---------------------------------------------------------------------------

           1          2          3          4          5          6          7          8
 ........................................................................................
   1   133.36801  135.65170  138.82671  141.90697  144.39102  146.05886  146.82099  146.63719
   2   131.53735  134.63597  138.38075  141.73956  144.34609  146.06607  146.85175  146.68258
   3   128.85827  133.48809  137.95554  141.61127  144.34116  146.11353  146.92379  146.77214
   4   130.87022  134.20285  138.20803  141.75089  144.46230  146.23402  147.04623  146.90100
   5   132.10086  134.92165  138.62547  142.03903  144.68994  146.42639  147.21615  147.05965
   6   131.74650  135.03874  138.95353  142.39140  144.99789  146.67943  147.42412  147.23694
   7   130.73790  135.25170  139.49559  142.90680  145.40579  146.98734  147.65831  147.42130
   8   134.68282  137.48436  140.78718  143.69853  145.91365  147.32748  147.89793  147.59735
   9   137.96198  139.69267  142.11920  144.48707  146.39101  147.63209  148.10947  147.74334
  10   139.65138  140.93818  142.91281  144.96519  146.67981  147.82052  148.26377  147.83485
1
  HEAD             IN LAYER   2 AT END OF TIME STEP  30 IN STRESS PERIOD    7
  ---------------------------------------------------------------------------

           9         10         11         12         13         14         15
 .............................................................................
   1   145.47761  143.30595  140.07656  135.74761  130.32901  124.19510  118.78629
   2   145.53956  143.39557  140.21714  135.98161  130.72604  124.83769  119.67398
   3   145.65266  143.55103  140.45243  136.36669  131.38998  125.99408  121.57720
   4   145.79872  143.73419  140.70666  136.74891  131.99222  126.91744  122.81200
   5   145.95884  143.91134  140.92052  137.02599  132.37366  127.45886  123.57765
   6   146.11909  144.06465  141.06966  137.15905  132.45306  127.41239  123.36286
   7   146.27157  144.19487  141.17389  137.20696  132.35574  126.95921  122.21837
   8   146.40928  144.30993  141.27402  137.29239  132.41932  126.98499  122.19958
   9   146.51914  144.40494  141.37454  137.43264  132.67831  127.53711  123.32890
  10   146.58279  144.46067  141.43945  137.53399  132.86869  127.89371  123.88183

 HEAD WILL BE SAVED ON UNIT 1017 AT END OF TIME STEP   30, STRESS PERIOD    7
1
  VOLUME BUDGET FOR ENTIRE MODEL AT END OF TIME STEP   30, STRESS PERIOD   7
  ------------------------------------------------------------------------------

     CUMULATIVE VOLUME      L**3       RATES FOR THIS TIME STEP      L**3/T
     ------------------                 ------------------------

           IN:                                      IN:
           ---                                      ---
             STORAGE =       53094.4490               STORAGE =           0.0000
    WELLS NEAR RIVER =           0.0000      WELLS NEAR RIVER =           0.0000
               RIVER =           0.0000                 RIVER =           0.0000
           GHB LAKES =           0.0000             GHB LAKES =           0.0000
            RECHARGE =    19739125.0000              RECHARGE =      138093.7500
             ET SEGS =           0.0000               ET SEGS =           0.0000

            TOTAL IN =    19792219.4490              TOTAL IN =      138093.7500

          OUT:                                     OUT:
          ----                                     ----
             STORAGE =     5471114.3114               STORAGE =       49512.6548
    WELLS NEAR RIVER =        5570.0000      WELLS NEAR RIVER =           0.0000
               RIVER =     7032201.7110                 RIVER =       42318.0008
           GHB LAKES =     5497382.4141             GHB LAKES =       31566.1737
            RECHARGE =           0.0000              RECHARGE =           0.0000
             ET SEGS =     1785951.0138               ET SEGS =       14696.9206

           TOTAL OUT =    19792219.4504             TOTAL OUT =      138093.7500

            IN - OUT =      -1.3644E-03              IN - OUT =      -7.3965E-06

 PERCENT DISCREPANCY =          -0.00     PERCENT DISCREPANCY =          -0.00






         TIME SUMMARY AT END OF TIME STEP   30 IN STRESS PERIOD    7
                    SECONDS     MINUTES      HOURS       DAYS        YEARS
                    -----------------------------------------------------------
   TIME STEP LENGTH  86400.      1440.0      24.000     1.00000     2.73785E-03
 STRESS PERIOD TIME 2.59200E+06  43200.      720.00      30.000     8.21355E-02
         TOTAL TIME 1.57248E+07 2.62080E+05  4368.0      182.00     0.49829    
RIV   no.    1 value from time series:   101.00     for time:  182.0     to  183.0    
RIV   no.    2 value from time series:   101.00     for time:  182.0     to  183.0    
RIV   no.    3 value from time series:   111.50     for time:  182.0     to  183.0    
RIV   no.    4 value from time series:   111.50     for time:  182.0     to  183.0    
RIV   no.    5 value from time series:   115.10     for time:  182.0     to  183.0    
RIV   no.    6 value from time series:   115.10     for time:  182.0     to  183.0    
RIV   no.    7 value from time series:   104.00     for time:  182.0     to  183.0    
RIV   no.    8 value from time series:   104.00     for time:  182.0     to  183.0    
RIV   no.    9 value from time series:   113.50     for time:  182.0     to  183.0    
RIV   no.   10 value from time series:   113.50     for time:  182.0     to  183.0    
RIV   no.    1 value from time series:   101.00     for time:  182.0     to  183.0    
RIV   no.    2 value from time series:   101.00     for time:  182.0     to  183.0    
RIV   no.    3 value from time series:   111.50     for time:  182.0     to  183.0    
RIV   no.    4 value from time series:   111.50     for time:  182.0     to  183.0    
RIV   no.    5 value from time series:   115.10     for time:  182.0     to  183.0    
RIV   no.    6 value from time series:   115.10     for time:  182.0     to  183.0    
RIV   no.    7 value from time series:   104.00     for time:  182.0     to  183.0    
RIV   no.    8 value from time series:   104.00     for time:  182.0     to  183.0    
RIV   no.    9 value from time series:   113.50     for time:  182.0     to  183.0    
RIV   no.   10 value from time series:   113.50     for time:  182.0     to  183.0    

 NO OUTPUT CONTROL FOR STRESS PERIOD    7   TIME STEP   31
RIV   no.    1 value from time series:   101.00     for time:  183.0     to  184.0    
RIV   no.    2 value from time series:   101.00     for time:  183.0     to  184.0    
RIV   no.    3 value from time series:   111.50     for time:  183.0     to  184.0    
RIV   no.    4 value from time series:   111.50     for time:  183.0     to  184.0    
RIV   no.    5 value from time series:   115.10     for time:  183.0     to  184.0    
RIV   no.    6 value from time series:   115.10     for time:  183.0     to  184.0    
RIV   no.    7 value from time series:   104.00     for time:  183.0     to  184.0    
RIV   no.    8 value from time series:   104.00     for time:  183.0     to  184.0    
RIV   no.    9 value from time series:   113.50     for time:  183.0     to  184.0    
RIV   no.   10 value from time series:   113.50     for time:  183.0     to  184.0    
RIV   no.    1 value from time series:   101.00     for time:  183.0     to  184.0    
RIV   no.    2 value from time series:   101.00     for time:  183.0     to  184.0    
RIV   no.    3 value from time series:   111.50     for time:  183.0     to  184.0    
RIV   no.    4 value from time series:   111.50     for time:  183.0     to  184.0    
RIV   no.    5 value from time series:   115.10     for time:  183.0     to  184.0    
RIV   no.    6 value from time series:   115.10     for time:  183.0     to  184.0    
RIV   no.    7 value from time series:   104.00     for time:  183.0     to  184.0    
RIV   no.    8 value from time series:   104.00     for time:  183.0     to  184.0    
RIV   no.    9 value from time series:   113.50     for time:  183.0     to  184.0    
RIV   no.   10 value from time series:   113.50     for time:  183.0     to  184.0    

 NO OUTPUT CONTROL FOR STRESS PERIOD    7   TIME STEP   32
RIV   no.    1 value from time series:   101.00     for time:  184.0     to  185.0    
RIV   no.    2 value from time series:   101.00     for time:  184.0     to  185.0    
RIV   no.    3 value from time series:   111.50     for time:  184.0     to  185.0    
RIV   no.    4 value from time series:   111.50     for time:  184.0     to  185.0    
RIV   no.    5 value from time series:   115.10     for time:  184.0     to  185.0    
RIV   no.    6 value from time series:   115.10     for time:  184.0     to  185.0    
RIV   no.    7 value from time series:   104.00     for time:  184.0     to  185.0    
RIV   no.    8 value from time series:   104.00     for time:  184.0     to  185.0    
RIV   no.    9 value from time series:   113.50     for time:  184.0     to  185.0    
RIV   no.   10 value from time series:   113.50     for time:  184.0     to  185.0    
RIV   no.    1 value from time series:   101.00     for time:  184.0     to  185.0    
RIV   no.    2 value from time series:   101.00     for time:  184.0     to  185.0    
RIV   no.    3 value from time series:   111.50     for time:  184.0     to  185.0    
RIV   no.    4 value from time series:   111.50     for time:  184.0     to  185.0    
RIV   no.    5 value from time series:   115.10     for time:  184.0     to  185.0    
RIV   no.    6 value from time series:   115.10     for time:  184.0     to  185.0    
RIV   no.    7 value from time series:   104.00     for time:  184.0     to  185.0    
RIV   no.    8 value from time series:   104.00     for time:  184.0     to  185.0    
RIV   no.    9 value from time series:   113.50     for time:  184.0     to  185.0    
RIV   no.   10 value from time series:   113.50     for time:  184.0     to  185.0    

 NO OUTPUT CONTROL FOR STRESS PERIOD    7   TIME STEP   33
RIV   no.    1 value from time series:   101.00     for time:  185.0     to  186.0    
RIV   no.    2 value from time series:   101.00     for time:  185.0     to  186.0    
RIV   no.    3 value from time series:   111.50     for time:  185.0     to  186.0    
RIV   no.    4 value from time series:   111.50     for time:  185.0     to  186.0    
RIV   no.    5 value from time series:   115.10     for time:  185.0     to  186.0    
RIV   no.    6 value from time series:   115.10     for time:  185.0     to  186.0    
RIV   no.    7 value from time series:   104.00     for time:  185.0     to  186.0    
RIV   no.    8 value from time series:   104.00     for time:  185.0     to  186.0    
RIV   no.    9 value from time series:   113.50     for time:  185.0     to  186.0    
RIV   no.   10 value from time series:   113.50     for time:  185.0     to  186.0    
RIV   no.    1 value from time series:   101.00     for time:  185.0     to  186.0    
RIV   no.    2 value from time series:   101.00     for time:  185.0     to  186.0    
RIV   no.    3 value from time series:   111.50     for time:  185.0     to  186.0    
RIV   no.    4 value from time series:   111.50     for time:  185.0     to  186.0    
RIV   no.    5 value from time series:   115.10     for time:  185.0     to  186.0    
RIV   no.    6 value from time series:   115.10     for time:  185.0     to  186.0    
RIV   no.    7 value from time series:   104.00     for time:  185.0     to  186.0    
RIV   no.    8 value from time series:   104.00     for time:  185.0     to  186.0    
RIV   no.    9 value from time series:   113.50     for time:  185.0     to  186.0    
RIV   no.   10 value from time series:   113.50     for time:  185.0     to  186.0    

 NO OUTPUT CONTROL FOR STRESS PERIOD    7   TIME STEP   34
RIV   no.    1 value from time series:   101.00     for time:  186.0     to  187.0    
RIV   no.    2 value from time series:   101.00     for time:  186.0     to  187.0    
RIV   no.    3 value from time series:   111.50     for time:  186.0     to  187.0    
RIV   no.    4 value from time series:   111.50     for time:  186.0     to  187.0    
RIV   no.    5 value from time series:   115.10     for time:  186.0     to  187.0    
RIV   no.    6 value from time series:   115.10     for time:  186.0     to  187.0    
RIV   no.    7 value from time series:   104.00     for time:  186.0     to  187.0    
RIV   no.    8 value from time series:   104.00     for time:  186.0     to  187.0    
RIV   no.    9 value from time series:   113.50     for time:  186.0     to  187.0    
RIV   no.   10 value from time series:   113.50     for time:  186.0     to  187.0    
RIV   no.    1 value from time series:   101.00     for time:  186.0     to  187.0    
RIV   no.    2 value from time series:   101.00     for time:  186.0     to  187.0    
RIV   no.    3 value from time series:   111.50     for time:  186.0     to  187.0    
RIV   no.    4 value from time series:   111.50     for time:  186.0     to  187.0    
RIV   no.    5 value from time series:   115.10     for time:  186.0     to  187.0    
RIV   no.    6 value from time series:   115.10     for time:  186.0     to  187.0    
RIV   no.    7 value from time series:   104.00     for time:  186.0     to  187.0    
RIV   no.    8 value from time series:   104.00     for time:  186.0     to  187.0    
RIV   no.    9 value from time series:   113.50     for time:  186.0     to  187.0    
RIV   no.   10 value from time series:   113.50     for time:  186.0     to  187.0    

 NO OUTPUT CONTROL FOR STRESS PERIOD    7   TIME STEP   35
RIV   no.    1 value from time series:   101.00     for time:  187.0     to  188.0    
RIV   no.    2 value from time series:   101.00     for time:  187.0     to  188.0    
RIV   no.    3 value from time series:   111.50     for time:  187.0     to  188.0    
RIV   no.    4 value from time series:   111.50     for time:  187.0     to  188.0    
RIV   no.    5 value from time series:   115.10     for time:  187.0     to  188.0    
RIV   no.    6 value from time series:   115.10     for time:  187.0     to  188.0    
RIV   no.    7 value from time series:   104.00     for time:  187.0     to  188.0    
RIV   no.    8 value from time series:   104.00     for time:  187.0     to  188.0    
RIV   no.    9 value from time series:   113.50     for time:  187.0     to  188.0    
RIV   no.   10 value from time series:   113.50     for time:  187.0     to  188.0    
RIV   no.    1 value from time series:   101.00     for time:  187.0     to  188.0    
RIV   no.    2 value from time series:   101.00     for time:  187.0     to  188.0    
RIV   no.    3 value from time series:   111.50     for time:  187.0     to  188.0    
RIV   no.    4 value from time series:   111.50     for time:  187.0     to  188.0    
RIV   no.    5 value from time series:   115.10     for time:  187.0     to  188.0    
RIV   no.    6 value from time series:   115.10     for time:  187.0     to  188.0    
RIV   no.    7 value from time series:   104.00     for time:  187.0     to  188.0    
RIV   no.    8 value from time series:   104.00     for time:  187.0     to  188.0    
RIV   no.    9 value from time series:   113.50     for time:  187.0     to  188.0    
RIV   no.   10 value from time series:   113.50     for time:  187.0     to  188.0    

 NO OUTPUT CONTROL FOR STRESS PERIOD    7   TIME STEP   36
RIV   no.    1 value from time series:   101.00     for time:  188.0     to  189.0    
RIV   no.    2 value from time series:   101.00     for time:  188.0     to  189.0    
RIV   no.    3 value from time series:   111.50     for time:  188.0     to  189.0    
RIV   no.    4 value from time series:   111.50     for time:  188.0     to  189.0    
RIV   no.    5 value from time series:   115.10     for time:  188.0     to  189.0    
RIV   no.    6 value from time series:   115.10     for time:  188.0     to  189.0    
RIV   no.    7 value from time series:   104.00     for time:  188.0     to  189.0    
RIV   no.    8 value from time series:   104.00     for time:  188.0     to  189.0    
RIV   no.    9 value from time series:   113.50     for time:  188.0     to  189.0    
RIV   no.   10 value from time series:   113.50     for time:  188.0     to  189.0    
RIV   no.    1 value from time series:   101.00     for time:  188.0     to  189.0    
RIV   no.    2 value from time series:   101.00     for time:  188.0     to  189.0    
RIV   no.    3 value from time series:   111.50     for time:  188.0     to  189.0    
RIV   no.    4 value from time series:   111.50     for time:  188.0     to  189.0    
RIV   no.    5 value from time series:   115.10     for time:  188.0     to  189.0    
RIV   no.    6 value from time series:   115.10     for time:  188.0     to  189.0    
RIV   no.    7 value from time series:   104.00     for time:  188.0     to  189.0    
RIV   no.    8 value from time series:   104.00     for time:  188.0     to  189.0    
RIV   no.    9 value from time series:   113.50     for time:  188.0     to  189.0    
RIV   no.   10 value from time series:   113.50     for time:  188.0     to  189.0    

 NO OUTPUT CONTROL FOR STRESS PERIOD    7   TIME STEP   37
RIV   no.    1 value from time series:   101.00     for time:  189.0     to  190.0    
RIV   no.    2 value from time series:   101.00     for time:  189.0     to  190.0    
RIV   no.    3 value from time series:   111.50     for time:  189.0     to  190.0    
RIV   no.    4 value from time series:   111.50     for time:  189.0     to  190.0    
RIV   no.    5 value from time series:   115.10     for time:  189.0     to  190.0    
RIV   no.    6 value from time series:   115.10     for time:  189.0     to  190.0    
RIV   no.    7 value from time series:   104.00     for time:  189.0     to  190.0    
RIV   no.    8 value from time series:   104.00     for time:  189.0     to  190.0    
RIV   no.    9 value from time series:   113.50     for time:  189.0     to  190.0    
RIV   no.   10 value from time series:   113.50     for time:  189.0     to  190.0    
RIV   no.    1 value from time series:   101.00     for time:  189.0     to  190.0    
RIV   no.    2 value from time series:   101.00     for time:  189.0     to  190.0    
RIV   no.    3 value from time series:   111.50     for time:  189.0     to  190.0    
RIV   no.    4 value from time series:   111.50     for time:  189.0     to  190.0    
RIV   no.    5 value from time series:   115.10     for time:  189.0     to  190.0    
RIV   no.    6 value from time series:   115.10     for time:  189.0     to  190.0    
RIV   no.    7 value from time series:   104.00     for time:  189.0     to  190.0    
RIV   no.    8 value from time series:   104.00     for time:  189.0     to  190.0    
RIV   no.    9 value from time series:   113.50     for time:  189.0     to  190.0    
RIV   no.   10 value from time series:   113.50     for time:  189.0     to  190.0    

 NO OUTPUT CONTROL FOR STRESS PERIOD    7   TIME STEP   38
RIV   no.    1 value from time series:   101.00     for time:  190.0     to  191.0    
RIV   no.    2 value from time series:   101.00     for time:  190.0     to  191.0    
RIV   no.    3 value from time series:   111.50     for time:  190.0     to  191.0    
RIV   no.    4 value from time series:   111.50     for time:  190.0     to  191.0    
RIV   no.    5 value from time series:   115.10     for time:  190.0     to  191.0    
RIV   no.    6 value from time series:   115.10     for time:  190.0     to  191.0    
RIV   no.    7 value from time series:   104.00     for time:  190.0     to  191.0    
RIV   no.    8 value from time series:   104.00     for time:  190.0     to  191.0    
RIV   no.    9 value from time series:   113.50     for time:  190.0     to  191.0    
RIV   no.   10 value from time series:   113.50     for time:  190.0     to  191.0    
RIV   no.    1 value from time series:   101.00     for time:  190.0     to  191.0    
RIV   no.    2 value from time series:   101.00     for time:  190.0     to  191.0    
RIV   no.    3 value from time series:   111.50     for time:  190.0     to  191.0    
RIV   no.    4 value from time series:   111.50     for time:  190.0     to  191.0    
RIV   no.    5 value from time series:   115.10     for time:  190.0     to  191.0    
RIV   no.    6 value from time series:   115.10     for time:  190.0     to  191.0    
RIV   no.    7 value from time series:   104.00     for time:  190.0     to  191.0    
RIV   no.    8 value from time series:   104.00     for time:  190.0     to  191.0    
RIV   no.    9 value from time series:   113.50     for time:  190.0     to  191.0    
RIV   no.   10 value from time series:   113.50     for time:  190.0     to  191.0    

 NO OUTPUT CONTROL FOR STRESS PERIOD    7   TIME STEP   39
RIV   no.    1 value from time series:   101.00     for time:  191.0     to  192.0    
RIV   no.    2 value from time series:   101.00     for time:  191.0     to  192.0    
RIV   no.    3 value from time series:   111.50     for time:  191.0     to  192.0    
RIV   no.    4 value from time series:   111.50     for time:  191.0     to  192.0    
RIV   no.    5 value from time series:   115.10     for time:  191.0     to  192.0    
RIV   no.    6 value from time series:   115.10     for time:  191.0     to  192.0    
RIV   no.    7 value from time series:   104.00     for time:  191.0     to  192.0    
RIV   no.    8 value from time series:   104.00     for time:  191.0     to  192.0    
RIV   no.    9 value from time series:   113.50     for time:  191.0     to  192.0    
RIV   no.   10 value from time series:   113.50     for time:  191.0     to  192.0    
RIV   no.    1 value from time series:   101.00     for time:  191.0     to  192.0    
RIV   no.    2 value from time series:   101.00     for time:  191.0     to  192.0    
RIV   no.    3 value from time series:   111.50     for time:  191.0     to  192.0    
RIV   no.    4 value from time series:   111.50     for time:  191.0     to  192.0    
RIV   no.    5 value from time series:   115.10     for time:  191.0     to  192.0    
RIV   no.    6 value from time series:   115.10     for time:  191.0     to  192.0    
RIV   no.    7 value from time series:   104.00     for time:  191.0     to  192.0    
RIV   no.    8 value from time series:   104.00     for time:  191.0     to  192.0    
RIV   no.    9 value from time series:   113.50     for time:  191.0     to  192.0    
RIV   no.   10 value from time series:   113.50     for time:  191.0     to  192.0    

 NO OUTPUT CONTROL FOR STRESS PERIOD    7   TIME STEP   40
RIV   no.    1 value from time series:   101.00     for time:  192.0     to  193.0    
RIV   no.    2 value from time series:   101.00     for time:  192.0     to  193.0    
RIV   no.    3 value from time series:   111.50     for time:  192.0     to  193.0    
RIV   no.    4 value from time series:   111.50     for time:  192.0     to  193.0    
RIV   no.    5 value from time series:   115.10     for time:  192.0     to  193.0    
RIV   no.    6 value from time series:   115.10     for time:  192.0     to  193.0    
RIV   no.    7 value from time series:   104.00     for time:  192.0     to  193.0    
RIV   no.    8 value from time series:   104.00     for time:  192.0     to  193.0    
RIV   no.    9 value from time series:   113.50     for time:  192.0     to  193.0    
RIV   no.   10 value from time series:   113.50     for time:  192.0     to  193.0    
RIV   no.    1 value from time series:   101.00     for time:  192.0     to  193.0    
RIV   no.    2 value from time series:   101.00     for time:  192.0     to  193.0    
RIV   no.    3 value from time series:   111.50     for time:  192.0     to  193.0    
RIV   no.    4 value from time series:   111.50     for time:  192.0     to  193.0    
RIV   no.    5 value from time series:   115.10     for time:  192.0     to  193.0    
RIV   no.    6 value from time series:   115.10     for time:  192.0     to  193.0    
RIV   no.    7 value from time series:   104.00     for time:  192.0     to  193.0    
RIV   no.    8 value from time series:   104.00     for time:  192.0     to  193.0    
RIV   no.    9 value from time series:   113.50     for time:  192.0     to  193.0    
RIV   no.   10 value from time series:   113.50     for time:  192.0     to  193.0    

 NO OUTPUT CONTROL FOR STRESS PERIOD    7   TIME STEP   41
RIV   no.    1 value from time series:   101.00     for time:  193.0     to  194.0    
RIV   no.    2 value from time series:   101.00     for time:  193.0     to  194.0    
RIV   no.    3 value from time series:   111.50     for time:  193.0     to  194.0    
RIV   no.    4 value from time series:   111.50     for time:  193.0     to  194.0    
RIV   no.    5 value from time series:   115.10     for time:  193.0     to  194.0    
RIV   no.    6 value from time series:   115.10     for time:  193.0     to  194.0    
RIV   no.    7 value from time series:   104.00     for time:  193.0     to  194.0    
RIV   no.    8 value from time series:   104.00     for time:  193.0     to  194.0    
RIV   no.    9 value from time series:   113.50     for time:  193.0     to  194.0    
RIV   no.   10 value from time series:   113.50     for time:  193.0     to  194.0    
RIV   no.    1 value from time series:   101.00     for time:  193.0     to  194.0    
RIV   no.    2 value from time series:   101.00     for time:  193.0     to  194.0    
RIV   no.    3 value from time series:   111.50     for time:  193.0     to  194.0    
RIV   no.    4 value from time series:   111.50     for time:  193.0     to  194.0    
RIV   no.    5 value from time series:   115.10     for time:  193.0     to  194.0    
RIV   no.    6 value from time series:   115.10     for time:  193.0     to  194.0    
RIV   no.    7 value from time series:   104.00     for time:  193.0     to  194.0    
RIV   no.    8 value from time series:   104.00     for time:  193.0     to  194.0    
RIV   no.    9 value from time series:   113.50     for time:  193.0     to  194.0    
RIV   no.   10 value from time series:   113.50     for time:  193.0     to  194.0    

 NO OUTPUT CONTROL FOR STRESS PERIOD    7   TIME STEP   42
RIV   no.    1 value from time series:   101.00     for time:  194.0     to  195.0    
RIV   no.    2 value from time series:   101.00     for time:  194.0     to  195.0    
RIV   no.    3 value from time series:   111.50     for time:  194.0     to  195.0    
RIV   no.    4 value from time series:   111.50     for time:  194.0     to  195.0    
RIV   no.    5 value from time series:   115.10     for time:  194.0     to  195.0    
RIV   no.    6 value from time series:   115.10     for time:  194.0     to  195.0    
RIV   no.    7 value from time series:   104.00     for time:  194.0     to  195.0    
RIV   no.    8 value from time series:   104.00     for time:  194.0     to  195.0    
RIV   no.    9 value from time series:   113.50     for time:  194.0     to  195.0    
RIV   no.   10 value from time series:   113.50     for time:  194.0     to  195.0    
RIV   no.    1 value from time series:   101.00     for time:  194.0     to  195.0    
RIV   no.    2 value from time series:   101.00     for time:  194.0     to  195.0    
RIV   no.    3 value from time series:   111.50     for time:  194.0     to  195.0    
RIV   no.    4 value from time series:   111.50     for time:  194.0     to  195.0    
RIV   no.    5 value from time series:   115.10     for time:  194.0     to  195.0    
RIV   no.    6 value from time series:   115.10     for time:  194.0     to  195.0    
RIV   no.    7 value from time series:   104.00     for time:  194.0     to  195.0    
RIV   no.    8 value from time series:   104.00     for time:  194.0     to  195.0    
RIV   no.    9 value from time series:   113.50     for time:  194.0     to  195.0    
RIV   no.   10 value from time series:   113.50     for time:  194.0     to  195.0    

 NO OUTPUT CONTROL FOR STRESS PERIOD    7   TIME STEP   43
RIV   no.    1 value from time series:   101.00     for time:  195.0     to  196.0    
RIV   no.    2 value from time series:   101.00     for time:  195.0     to  196.0    
RIV   no.    3 value from time series:   111.50     for time:  195.0     to  196.0    
RIV   no.    4 value from time series:   111.50     for time:  195.0     to  196.0    
RIV   no.    5 value from time series:   115.10     for time:  195.0     to  196.0    
RIV   no.    6 value from time series:   115.10     for time:  195.0     to  196.0    
RIV   no.    7 value from time series:   104.00     for time:  195.0     to  196.0    
RIV   no.    8 value from time series:   104.00     for time:  195.0     to  196.0    
RIV   no.    9 value from time series:   113.50     for time:  195.0     to  196.0    
RIV   no.   10 value from time series:   113.50     for time:  195.0     to  196.0    
RIV   no.    1 value from time series:   101.00     for time:  195.0     to  196.0    
RIV   no.    2 value from time series:   101.00     for time:  195.0     to  196.0    
RIV   no.    3 value from time series:   111.50     for time:  195.0     to  196.0    
RIV   no.    4 value from time series:   111.50     for time:  195.0     to  196.0    
RIV   no.    5 value from time series:   115.10     for time:  195.0     to  196.0    
RIV   no.    6 value from time series:   115.10     for time:  195.0     to  196.0    
RIV   no.    7 value from time series:   104.00     for time:  195.0     to  196.0    
RIV   no.    8 value from time series:   104.00     for time:  195.0     to  196.0    
RIV   no.    9 value from time series:   113.50     for time:  195.0     to  196.0    
RIV   no.   10 value from time series:   113.50     for time:  195.0     to  196.0    

 NO OUTPUT CONTROL FOR STRESS PERIOD    7   TIME STEP   44
RIV   no.    1 value from time series:   101.00     for time:  196.0     to  197.0    
RIV   no.    2 value from time series:   101.00     for time:  196.0     to  197.0    
RIV   no.    3 value from time series:   111.50     for time:  196.0     to  197.0    
RIV   no.    4 value from time series:   111.50     for time:  196.0     to  197.0    
RIV   no.    5 value from time series:   115.10     for time:  196.0     to  197.0    
RIV   no.    6 value from time series:   115.10     for time:  196.0     to  197.0    
RIV   no.    7 value from time series:   104.00     for time:  196.0     to  197.0    
RIV   no.    8 value from time series:   104.00     for time:  196.0     to  197.0    
RIV   no.    9 value from time series:   113.50     for time:  196.0     to  197.0    
RIV   no.   10 value from time series:   113.50     for time:  196.0     to  197.0    
RIV   no.    1 value from time series:   101.00     for time:  196.0     to  197.0    
RIV   no.    2 value from time series:   101.00     for time:  196.0     to  197.0    
RIV   no.    3 value from time series:   111.50     for time:  196.0     to  197.0    
RIV   no.    4 value from time series:   111.50     for time:  196.0     to  197.0    
RIV   no.    5 value from time series:   115.10     for time:  196.0     to  197.0    
RIV   no.    6 value from time series:   115.10     for time:  196.0     to  197.0    
RIV   no.    7 value from time series:   104.00     for time:  196.0     to  197.0    
RIV   no.    8 value from time series:   104.00     for time:  196.0     to  197.0    
RIV   no.    9 value from time series:   113.50     for time:  196.0     to  197.0    
RIV   no.   10 value from time series:   113.50     for time:  196.0     to  197.0    

 NO OUTPUT CONTROL FOR STRESS PERIOD    7   TIME STEP   45
RIV   no.    1 value from time series:   101.00     for time:  197.0     to  198.0    
RIV   no.    2 value from time series:   101.00     for time:  197.0     to  198.0    
RIV   no.    3 value from time series:   111.50     for time:  197.0     to  198.0    
RIV   no.    4 value from time series:   111.50     for time:  197.0     to  198.0    
RIV   no.    5 value from time series:   115.10     for time:  197.0     to  198.0    
RIV   no.    6 value from time series:   115.10     for time:  197.0     to  198.0    
RIV   no.    7 value from time series:   104.00     for time:  197.0     to  198.0    
RIV   no.    8 value from time series:   104.00     for time:  197.0     to  198.0    
RIV   no.    9 value from time series:   113.50     for time:  197.0     to  198.0    
RIV   no.   10 value from time series:   113.50     for time:  197.0     to  198.0    
RIV   no.    1 value from time series:   101.00     for time:  197.0     to  198.0    
RIV   no.    2 value from time series:   101.00     for time:  197.0     to  198.0    
RIV   no.    3 value from time series:   111.50     for time:  197.0     to  198.0    
RIV   no.    4 value from time series:   111.50     for time:  197.0     to  198.0    
RIV   no.    5 value from time series:   115.10     for time:  197.0     to  198.0    
RIV   no.    6 value from time series:   115.10     for time:  197.0     to  198.0    
RIV   no.    7 value from time series:   104.00     for time:  197.0     to  198.0    
RIV   no.    8 value from time series:   104.00     for time:  197.0     to  198.0    
RIV   no.    9 value from time series:   113.50     for time:  197.0     to  198.0    
RIV   no.   10 value from time series:   113.50     for time:  197.0     to  198.0    

 NO OUTPUT CONTROL FOR STRESS PERIOD    7   TIME STEP   46
RIV   no.    1 value from time series:   101.00     for time:  198.0     to  199.0    
RIV   no.    2 value from time series:   101.00     for time:  198.0     to  199.0    
RIV   no.    3 value from time series:   111.50     for time:  198.0     to  199.0    
RIV   no.    4 value from time series:   111.50     for time:  198.0     to  199.0    
RIV   no.    5 value from time series:   115.10     for time:  198.0     to  199.0    
RIV   no.    6 value from time series:   115.10     for time:  198.0     to  199.0    
RIV   no.    7 value from time series:   104.00     for time:  198.0     to  199.0    
RIV   no.    8 value from time series:   104.00     for time:  198.0     to  199.0    
RIV   no.    9 value from time series:   113.50     for time:  198.0     to  199.0    
RIV   no.   10 value from time series:   113.50     for time:  198.0     to  199.0    
RIV   no.    1 value from time series:   101.00     for time:  198.0     to  199.0    
RIV   no.    2 value from time series:   101.00     for time:  198.0     to  199.0    
RIV   no.    3 value from time series:   111.50     for time:  198.0     to  199.0    
RIV   no.    4 value from time series:   111.50     for time:  198.0     to  199.0    
RIV   no.    5 value from time series:   115.10     for time:  198.0     to  199.0    
RIV   no.    6 value from time series:   115.10     for time:  198.0     to  199.0    
RIV   no.    7 value from time series:   104.00     for time:  198.0     to  199.0    
RIV   no.    8 value from time series:   104.00     for time:  198.0     to  199.0    
RIV   no.    9 value from time series:   113.50     for time:  198.0     to  199.0    
RIV   no.   10 value from time series:   113.50     for time:  198.0     to  199.0    

 NO OUTPUT CONTROL FOR STRESS PERIOD    7   TIME STEP   47
RIV   no.    1 value from time series:   101.00     for time:  199.0     to  200.0    
RIV   no.    2 value from time series:   101.00     for time:  199.0     to  200.0    
RIV   no.    3 value from time series:   111.50     for time:  199.0     to  200.0    
RIV   no.    4 value from time series:   111.50     for time:  199.0     to  200.0    
RIV   no.    5 value from time series:   115.10     for time:  199.0     to  200.0    
RIV   no.    6 value from time series:   115.10     for time:  199.0     to  200.0    
RIV   no.    7 value from time series:   104.00     for time:  199.0     to  200.0    
RIV   no.    8 value from time series:   104.00     for time:  199.0     to  200.0    
RIV   no.    9 value from time series:   113.50     for time:  199.0     to  200.0    
RIV   no.   10 value from time series:   113.50     for time:  199.0     to  200.0    
RIV   no.    1 value from time series:   101.00     for time:  199.0     to  200.0    
RIV   no.    2 value from time series:   101.00     for time:  199.0     to  200.0    
RIV   no.    3 value from time series:   111.50     for time:  199.0     to  200.0    
RIV   no.    4 value from time series:   111.50     for time:  199.0     to  200.0    
RIV   no.    5 value from time series:   115.10     for time:  199.0     to  200.0    
RIV   no.    6 value from time series:   115.10     for time:  199.0     to  200.0    
RIV   no.    7 value from time series:   104.00     for time:  199.0     to  200.0    
RIV   no.    8 value from time series:   104.00     for time:  199.0     to  200.0    
RIV   no.    9 value from time series:   113.50     for time:  199.0     to  200.0    
RIV   no.   10 value from time series:   113.50     for time:  199.0     to  200.0    

 NO OUTPUT CONTROL FOR STRESS PERIOD    7   TIME STEP   48
RIV   no.    1 value from time series:   101.00     for time:  200.0     to  201.0    
RIV   no.    2 value from time series:   101.00     for time:  200.0     to  201.0    
RIV   no.    3 value from time series:   111.50     for time:  200.0     to  201.0    
RIV   no.    4 value from time series:   111.50     for time:  200.0     to  201.0    
RIV   no.    5 value from time series:   115.10     for time:  200.0     to  201.0    
RIV   no.    6 value from time series:   115.10     for time:  200.0     to  201.0    
RIV   no.    7 value from time series:   104.00     for time:  200.0     to  201.0    
RIV   no.    8 value from time series:   104.00     for time:  200.0     to  201.0    
RIV   no.    9 value from time series:   113.50     for time:  200.0     to  201.0    
RIV   no.   10 value from time series:   113.50     for time:  200.0     to  201.0    
RIV   no.    1 value from time series:   101.00     for time:  200.0     to  201.0    
RIV   no.    2 value from time series:   101.00     for time:  200.0     to  201.0    
RIV   no.    3 value from time series:   111.50     for time:  200.0     to  201.0    
RIV   no.    4 value from time series:   111.50     for time:  200.0     to  201.0    
RIV   no.    5 value from time series:   115.10     for time:  200.0     to  201.0    
RIV   no.    6 value from time series:   115.10     for time:  200.0     to  201.0    
RIV   no.    7 value from time series:   104.00     for time:  200.0     to  201.0    
RIV   no.    8 value from time series:   104.00     for time:  200.0     to  201.0    
RIV   no.    9 value from time series:   113.50     for time:  200.0     to  201.0    
RIV   no.   10 value from time series:   113.50     for time:  200.0     to  201.0    

 NO OUTPUT CONTROL FOR STRESS PERIOD    7   TIME STEP   49
RIV   no.    1 value from time series:   101.00     for time:  201.0     to  202.0    
RIV   no.    2 value from time series:   101.00     for time:  201.0     to  202.0    
RIV   no.    3 value from time series:   111.50     for time:  201.0     to  202.0    
RIV   no.    4 value from time series:   111.50     for time:  201.0     to  202.0    
RIV   no.    5 value from time series:   115.10     for time:  201.0     to  202.0    
RIV   no.    6 value from time series:   115.10     for time:  201.0     to  202.0    
RIV   no.    7 value from time series:   104.00     for time:  201.0     to  202.0    
RIV   no.    8 value from time series:   104.00     for time:  201.0     to  202.0    
RIV   no.    9 value from time series:   113.50     for time:  201.0     to  202.0    
RIV   no.   10 value from time series:   113.50     for time:  201.0     to  202.0    
RIV   no.    1 value from time series:   101.00     for time:  201.0     to  202.0    
RIV   no.    2 value from time series:   101.00     for time:  201.0     to  202.0    
RIV   no.    3 value from time series:   111.50     for time:  201.0     to  202.0    
RIV   no.    4 value from time series:   111.50     for time:  201.0     to  202.0    
RIV   no.    5 value from time series:   115.10     for time:  201.0     to  202.0    
RIV   no.    6 value from time series:   115.10     for time:  201.0     to  202.0    
RIV   no.    7 value from time series:   104.00     for time:  201.0     to  202.0    
RIV   no.    8 value from time series:   104.00     for time:  201.0     to  202.0    
RIV   no.    9 value from time series:   113.50     for time:  201.0     to  202.0    
RIV   no.   10 value from time series:   113.50     for time:  201.0     to  202.0    

 NO OUTPUT CONTROL FOR STRESS PERIOD    7   TIME STEP   50
RIV   no.    1 value from time series:   101.00     for time:  202.0     to  203.0    
RIV   no.    2 value from time series:   101.00     for time:  202.0     to  203.0    
RIV   no.    3 value from time series:   111.50     for time:  202.0     to  203.0    
RIV   no.    4 value from time series:   111.50     for time:  202.0     to  203.0    
RIV   no.    5 value from time series:   115.10     for time:  202.0     to  203.0    
RIV   no.    6 value from time series:   115.10     for time:  202.0     to  203.0    
RIV   no.    7 value from time series:   104.00     for time:  202.0     to  203.0    
RIV   no.    8 value from time series:   104.00     for time:  202.0     to  203.0    
RIV   no.    9 value from time series:   113.50     for time:  202.0     to  203.0    
RIV   no.   10 value from time series:   113.50     for time:  202.0     to  203.0    
RIV   no.    1 value from time series:   101.00     for time:  202.0     to  203.0    
RIV   no.    2 value from time series:   101.00     for time:  202.0     to  203.0    
RIV   no.    3 value from time series:   111.50     for time:  202.0     to  203.0    
RIV   no.    4 value from time series:   111.50     for time:  202.0     to  203.0    
RIV   no.    5 value from time series:   115.10     for time:  202.0     to  203.0    
RIV   no.    6 value from time series:   115.10     for time:  202.0     to  203.0    
RIV   no.    7 value from time series:   104.00     for time:  202.0     to  203.0    
RIV   no.    8 value from time series:   104.00     for time:  202.0     to  203.0    
RIV   no.    9 value from time series:   113.50     for time:  202.0     to  203.0    
RIV   no.   10 value from time series:   113.50     for time:  202.0     to  203.0    

 NO OUTPUT CONTROL FOR STRESS PERIOD    7   TIME STEP   51
RIV   no.    1 value from time series:   101.00     for time:  203.0     to  204.0    
RIV   no.    2 value from time series:   101.00     for time:  203.0     to  204.0    
RIV   no.    3 value from time series:   111.50     for time:  203.0     to  204.0    
RIV   no.    4 value from time series:   111.50     for time:  203.0     to  204.0    
RIV   no.    5 value from time series:   115.10     for time:  203.0     to  204.0    
RIV   no.    6 value from time series:   115.10     for time:  203.0     to  204.0    
RIV   no.    7 value from time series:   104.00     for time:  203.0     to  204.0    
RIV   no.    8 value from time series:   104.00     for time:  203.0     to  204.0    
RIV   no.    9 value from time series:   113.50     for time:  203.0     to  204.0    
RIV   no.   10 value from time series:   113.50     for time:  203.0     to  204.0    
RIV   no.    1 value from time series:   101.00     for time:  203.0     to  204.0    
RIV   no.    2 value from time series:   101.00     for time:  203.0     to  204.0    
RIV   no.    3 value from time series:   111.50     for time:  203.0     to  204.0    
RIV   no.    4 value from time series:   111.50     for time:  203.0     to  204.0    
RIV   no.    5 value from time series:   115.10     for time:  203.0     to  204.0    
RIV   no.    6 value from time series:   115.10     for time:  203.0     to  204.0    
RIV   no.    7 value from time series:   104.00     for time:  203.0     to  204.0    
RIV   no.    8 value from time series:   104.00     for time:  203.0     to  204.0    
RIV   no.    9 value from time series:   113.50     for time:  203.0     to  204.0    
RIV   no.   10 value from time series:   113.50     for time:  203.0     to  204.0    

 NO OUTPUT CONTROL FOR STRESS PERIOD    7   TIME STEP   52
RIV   no.    1 value from time series:   101.00     for time:  204.0     to  205.0    
RIV   no.    2 value from time series:   101.00     for time:  204.0     to  205.0    
RIV   no.    3 value from time series:   111.50     for time:  204.0     to  205.0    
RIV   no.    4 value from time series:   111.50     for time:  204.0     to  205.0    
RIV   no.    5 value from time series:   115.10     for time:  204.0     to  205.0    
RIV   no.    6 value from time series:   115.10     for time:  204.0     to  205.0    
RIV   no.    7 value from time series:   104.00     for time:  204.0     to  205.0    
RIV   no.    8 value from time series:   104.00     for time:  204.0     to  205.0    
RIV   no.    9 value from time series:   113.50     for time:  204.0     to  205.0    
RIV   no.   10 value from time series:   113.50     for time:  204.0     to  205.0    
RIV   no.    1 value from time series:   101.00     for time:  204.0     to  205.0    
RIV   no.    2 value from time series:   101.00     for time:  204.0     to  205.0    
RIV   no.    3 value from time series:   111.50     for time:  204.0     to  205.0    
RIV   no.    4 value from time series:   111.50     for time:  204.0     to  205.0    
RIV   no.    5 value from time series:   115.10     for time:  204.0     to  205.0    
RIV   no.    6 value from time series:   115.10     for time:  204.0     to  205.0    
RIV   no.    7 value from time series:   104.00     for time:  204.0     to  205.0    
RIV   no.    8 value from time series:   104.00     for time:  204.0     to  205.0    
RIV   no.    9 value from time series:   113.50     for time:  204.0     to  205.0    
RIV   no.   10 value from time series:   113.50     for time:  204.0     to  205.0    

 NO OUTPUT CONTROL FOR STRESS PERIOD    7   TIME STEP   53
RIV   no.    1 value from time series:   101.00     for time:  205.0     to  206.0    
RIV   no.    2 value from time series:   101.00     for time:  205.0     to  206.0    
RIV   no.    3 value from time series:   111.50     for time:  205.0     to  206.0    
RIV   no.    4 value from time series:   111.50     for time:  205.0     to  206.0    
RIV   no.    5 value from time series:   115.10     for time:  205.0     to  206.0    
RIV   no.    6 value from time series:   115.10     for time:  205.0     to  206.0    
RIV   no.    7 value from time series:   104.00     for time:  205.0     to  206.0    
RIV   no.    8 value from time series:   104.00     for time:  205.0     to  206.0    
RIV   no.    9 value from time series:   113.50     for time:  205.0     to  206.0    
RIV   no.   10 value from time series:   113.50     for time:  205.0     to  206.0    
RIV   no.    1 value from time series:   101.00     for time:  205.0     to  206.0    
RIV   no.    2 value from time series:   101.00     for time:  205.0     to  206.0    
RIV   no.    3 value from time series:   111.50     for time:  205.0     to  206.0    
RIV   no.    4 value from time series:   111.50     for time:  205.0     to  206.0    
RIV   no.    5 value from time series:   115.10     for time:  205.0     to  206.0    
RIV   no.    6 value from time series:   115.10     for time:  205.0     to  206.0    
RIV   no.    7 value from time series:   104.00     for time:  205.0     to  206.0    
RIV   no.    8 value from time series:   104.00     for time:  205.0     to  206.0    
RIV   no.    9 value from time series:   113.50     for time:  205.0     to  206.0    
RIV   no.   10 value from time series:   113.50     for time:  205.0     to  206.0    

 NO OUTPUT CONTROL FOR STRESS PERIOD    7   TIME STEP   54
RIV   no.    1 value from time series:   101.00     for time:  206.0     to  207.0    
RIV   no.    2 value from time series:   101.00     for time:  206.0     to  207.0    
RIV   no.    3 value from time series:   111.50     for time:  206.0     to  207.0    
RIV   no.    4 value from time series:   111.50     for time:  206.0     to  207.0    
RIV   no.    5 value from time series:   115.10     for time:  206.0     to  207.0    
RIV   no.    6 value from time series:   115.10     for time:  206.0     to  207.0    
RIV   no.    7 value from time series:   104.00     for time:  206.0     to  207.0    
RIV   no.    8 value from time series:   104.00     for time:  206.0     to  207.0    
RIV   no.    9 value from time series:   113.50     for time:  206.0     to  207.0    
RIV   no.   10 value from time series:   113.50     for time:  206.0     to  207.0    
RIV   no.    1 value from time series:   101.00     for time:  206.0     to  207.0    
RIV   no.    2 value from time series:   101.00     for time:  206.0     to  207.0    
RIV   no.    3 value from time series:   111.50     for time:  206.0     to  207.0    
RIV   no.    4 value from time series:   111.50     for time:  206.0     to  207.0    
RIV   no.    5 value from time series:   115.10     for time:  206.0     to  207.0    
RIV   no.    6 value from time series:   115.10     for time:  206.0     to  207.0    
RIV   no.    7 value from time series:   104.00     for time:  206.0     to  207.0    
RIV   no.    8 value from time series:   104.00     for time:  206.0     to  207.0    
RIV   no.    9 value from time series:   113.50     for time:  206.0     to  207.0    
RIV   no.   10 value from time series:   113.50     for time:  206.0     to  207.0    

 NO OUTPUT CONTROL FOR STRESS PERIOD    7   TIME STEP   55
RIV   no.    1 value from time series:   101.00     for time:  207.0     to  208.0    
RIV   no.    2 value from time series:   101.00     for time:  207.0     to  208.0    
RIV   no.    3 value from time series:   111.50     for time:  207.0     to  208.0    
RIV   no.    4 value from time series:   111.50     for time:  207.0     to  208.0    
RIV   no.    5 value from time series:   115.10     for time:  207.0     to  208.0    
RIV   no.    6 value from time series:   115.10     for time:  207.0     to  208.0    
RIV   no.    7 value from time series:   104.00     for time:  207.0     to  208.0    
RIV   no.    8 value from time series:   104.00     for time:  207.0     to  208.0    
RIV   no.    9 value from time series:   113.50     for time:  207.0     to  208.0    
RIV   no.   10 value from time series:   113.50     for time:  207.0     to  208.0    
RIV   no.    1 value from time series:   101.00     for time:  207.0     to  208.0    
RIV   no.    2 value from time series:   101.00     for time:  207.0     to  208.0    
RIV   no.    3 value from time series:   111.50     for time:  207.0     to  208.0    
RIV   no.    4 value from time series:   111.50     for time:  207.0     to  208.0    
RIV   no.    5 value from time series:   115.10     for time:  207.0     to  208.0    
RIV   no.    6 value from time series:   115.10     for time:  207.0     to  208.0    
RIV   no.    7 value from time series:   104.00     for time:  207.0     to  208.0    
RIV   no.    8 value from time series:   104.00     for time:  207.0     to  208.0    
RIV   no.    9 value from time series:   113.50     for time:  207.0     to  208.0    
RIV   no.   10 value from time series:   113.50     for time:  207.0     to  208.0    

 NO OUTPUT CONTROL FOR STRESS PERIOD    7   TIME STEP   56
RIV   no.    1 value from time series:   101.00     for time:  208.0     to  209.0    
RIV   no.    2 value from time series:   101.00     for time:  208.0     to  209.0    
RIV   no.    3 value from time series:   111.50     for time:  208.0     to  209.0    
RIV   no.    4 value from time series:   111.50     for time:  208.0     to  209.0    
RIV   no.    5 value from time series:   115.10     for time:  208.0     to  209.0    
RIV   no.    6 value from time series:   115.10     for time:  208.0     to  209.0    
RIV   no.    7 value from time series:   104.00     for time:  208.0     to  209.0    
RIV   no.    8 value from time series:   104.00     for time:  208.0     to  209.0    
RIV   no.    9 value from time series:   113.50     for time:  208.0     to  209.0    
RIV   no.   10 value from time series:   113.50     for time:  208.0     to  209.0    
RIV   no.    1 value from time series:   101.00     for time:  208.0     to  209.0    
RIV   no.    2 value from time series:   101.00     for time:  208.0     to  209.0    
RIV   no.    3 value from time series:   111.50     for time:  208.0     to  209.0    
RIV   no.    4 value from time series:   111.50     for time:  208.0     to  209.0    
RIV   no.    5 value from time series:   115.10     for time:  208.0     to  209.0    
RIV   no.    6 value from time series:   115.10     for time:  208.0     to  209.0    
RIV   no.    7 value from time series:   104.00     for time:  208.0     to  209.0    
RIV   no.    8 value from time series:   104.00     for time:  208.0     to  209.0    
RIV   no.    9 value from time series:   113.50     for time:  208.0     to  209.0    
RIV   no.   10 value from time series:   113.50     for time:  208.0     to  209.0    

 NO OUTPUT CONTROL FOR STRESS PERIOD    7   TIME STEP   57
RIV   no.    1 value from time series:   101.00     for time:  209.0     to  210.0    
RIV   no.    2 value from time series:   101.00     for time:  209.0     to  210.0    
RIV   no.    3 value from time series:   111.50     for time:  209.0     to  210.0    
RIV   no.    4 value from time series:   111.50     for time:  209.0     to  210.0    
RIV   no.    5 value from time series:   115.10     for time:  209.0     to  210.0    
RIV   no.    6 value from time series:   115.10     for time:  209.0     to  210.0    
RIV   no.    7 value from time series:   104.00     for time:  209.0     to  210.0    
RIV   no.    8 value from time series:   104.00     for time:  209.0     to  210.0    
RIV   no.    9 value from time series:   113.50     for time:  209.0     to  210.0    
RIV   no.   10 value from time series:   113.50     for time:  209.0     to  210.0    
RIV   no.    1 value from time series:   101.00     for time:  209.0     to  210.0    
RIV   no.    2 value from time series:   101.00     for time:  209.0     to  210.0    
RIV   no.    3 value from time series:   111.50     for time:  209.0     to  210.0    
RIV   no.    4 value from time series:   111.50     for time:  209.0     to  210.0    
RIV   no.    5 value from time series:   115.10     for time:  209.0     to  210.0    
RIV   no.    6 value from time series:   115.10     for time:  209.0     to  210.0    
RIV   no.    7 value from time series:   104.00     for time:  209.0     to  210.0    
RIV   no.    8 value from time series:   104.00     for time:  209.0     to  210.0    
RIV   no.    9 value from time series:   113.50     for time:  209.0     to  210.0    
RIV   no.   10 value from time series:   113.50     for time:  209.0     to  210.0    

 NO OUTPUT CONTROL FOR STRESS PERIOD    7   TIME STEP   58
RIV   no.    1 value from time series:   101.00     for time:  210.0     to  211.0    
RIV   no.    2 value from time series:   101.00     for time:  210.0     to  211.0    
RIV   no.    3 value from time series:   111.50     for time:  210.0     to  211.0    
RIV   no.    4 value from time series:   111.50     for time:  210.0     to  211.0    
RIV   no.    5 value from time series:   115.10     for time:  210.0     to  211.0    
RIV   no.    6 value from time series:   115.10     for time:  210.0     to  211.0    
RIV   no.    7 value from time series:   104.00     for time:  210.0     to  211.0    
RIV   no.    8 value from time series:   104.00     for time:  210.0     to  211.0    
RIV   no.    9 value from time series:   113.50     for time:  210.0     to  211.0    
RIV   no.   10 value from time series:   113.50     for time:  210.0     to  211.0    
RIV   no.    1 value from time series:   101.00     for time:  210.0     to  211.0    
RIV   no.    2 value from time series:   101.00     for time:  210.0     to  211.0    
RIV   no.    3 value from time series:   111.50     for time:  210.0     to  211.0    
RIV   no.    4 value from time series:   111.50     for time:  210.0     to  211.0    
RIV   no.    5 value from time series:   115.10     for time:  210.0     to  211.0    
RIV   no.    6 value from time series:   115.10     for time:  210.0     to  211.0    
RIV   no.    7 value from time series:   104.00     for time:  210.0     to  211.0    
RIV   no.    8 value from time series:   104.00     for time:  210.0     to  211.0    
RIV   no.    9 value from time series:   113.50     for time:  210.0     to  211.0    
RIV   no.   10 value from time series:   113.50     for time:  210.0     to  211.0    

 NO OUTPUT CONTROL FOR STRESS PERIOD    7   TIME STEP   59
RIV   no.    1 value from time series:   101.00     for time:  211.0     to  212.0    
RIV   no.    2 value from time series:   101.00     for time:  211.0     to  212.0    
RIV   no.    3 value from time series:   111.50     for time:  211.0     to  212.0    
RIV   no.    4 value from time series:   111.50     for time:  211.0     to  212.0    
RIV   no.    5 value from time series:   115.10     for time:  211.0     to  212.0    
RIV   no.    6 value from time series:   115.10     for time:  211.0     to  212.0    
RIV   no.    7 value from time series:   104.00     for time:  211.0     to  212.0    
RIV   no.    8 value from time series:   104.00     for time:  211.0     to  212.0    
RIV   no.    9 value from time series:   113.50     for time:  211.0     to  212.0    
RIV   no.   10 value from time series:   113.50     for time:  211.0     to  212.0    
RIV   no.    1 value from time series:   101.00     for time:  211.0     to  212.0    
RIV   no.    2 value from time series:   101.00     for time:  211.0     to  212.0    
RIV   no.    3 value from time series:   111.50     for time:  211.0     to  212.0    
RIV   no.    4 value from time series:   111.50     for time:  211.0     to  212.0    
RIV   no.    5 value from time series:   115.10     for time:  211.0     to  212.0    
RIV   no.    6 value from time series:   115.10     for time:  211.0     to  212.0    
RIV   no.    7 value from time series:   104.00     for time:  211.0     to  212.0    
RIV   no.    8 value from time series:   104.00     for time:  211.0     to  212.0    
RIV   no.    9 value from time series:   113.50     for time:  211.0     to  212.0    
RIV   no.   10 value from time series:   113.50     for time:  211.0     to  212.0    

 NO OUTPUT CONTROL FOR STRESS PERIOD    7   TIME STEP   60
RIV   no.    1 value from time series:   101.00     for time:  212.0     to  213.0    
RIV   no.    2 value from time series:   101.00     for time:  212.0     to  213.0    
RIV   no.    3 value from time series:   111.50     for time:  212.0     to  213.0    
RIV   no.    4 value from time series:   111.50     for time:  212.0     to  213.0    
RIV   no.    5 value from time series:   115.10     for time:  212.0     to  213.0    
RIV   no.    6 value from time series:   115.10     for time:  212.0     to  213.0    
RIV   no.    7 value from time series:   104.00     for time:  212.0     to  213.0    
RIV   no.    8 value from time series:   104.00     for time:  212.0     to  213.0    
RIV   no.    9 value from time series:   113.50     for time:  212.0     to  213.0    
RIV   no.   10 value from time series:   113.50     for time:  212.0     to  213.0    
RIV   no.    1 value from time series:   101.00     for time:  212.0     to  213.0    
RIV   no.    2 value from time series:   101.00     for time:  212.0     to  213.0    
RIV   no.    3 value from time series:   111.50     for time:  212.0     to  213.0    
RIV   no.    4 value from time series:   111.50     for time:  212.0     to  213.0    
RIV   no.    5 value from time series:   115.10     for time:  212.0     to  213.0    
RIV   no.    6 value from time series:   115.10     for time:  212.0     to  213.0    
RIV   no.    7 value from time series:   104.00     for time:  212.0     to  213.0    
RIV   no.    8 value from time series:   104.00     for time:  212.0     to  213.0    
RIV   no.    9 value from time series:   113.50     for time:  212.0     to  213.0    
RIV   no.   10 value from time series:   113.50     for time:  212.0     to  213.0    

 OUTPUT CONTROL FOR STRESS PERIOD    7   TIME STEP   61
    PRINT BUDGET
    PRINT HEAD
    PRINT HEAD FOR ALL LAYERS
    SAVE BUDGET
    SAVE HEAD
    SAVE HEAD FOR ALL LAYERS
 UBDSV1 SAVING          STORAGE ON UNIT   1016 AT TIME STEP     61, STRESS PERIOD      7
 UBDSV1 SAVING FLOW RIGHT FACE  ON UNIT   1016 AT TIME STEP     61, STRESS PERIOD      7
 UBDSV1 SAVING FLOW FRONT FACE  ON UNIT   1016 AT TIME STEP     61, STRESS PERIOD      7
 UBDSV1 SAVING FLOW LOWER FACE  ON UNIT   1016 AT TIME STEP     61, STRESS PERIOD      7
 UBDSV4 SAVING WELLS NEAR RIVER ON UNIT   1016 AT TIME STEP     61, STRESS PERIOD      7
 UBDSV4 SAVING RIVER            ON UNIT   1016 AT TIME STEP     61, STRESS PERIOD      7

 RIVER              PERIOD  7   STEP 61
 BOUNDARY      1   LAYER   1   ROW     1   COL    15   RATE    -5300.68    
 BOUNDARY      2   LAYER   1   ROW     2   COL    15   RATE    -6430.99      RIV2
 BOUNDARY      3   LAYER   1   ROW     3   COL    15   RATE    -2688.30      RIV3
 BOUNDARY      4   LAYER   1   ROW     4   COL    15   RATE    -4156.37    
 BOUNDARY      5   LAYER   1   ROW     5   COL    15   RATE    -2789.15    
 BOUNDARY      6   LAYER   1   ROW     6   COL    15   RATE    -2134.78    
 BOUNDARY      7   LAYER   1   ROW     7   COL    15   RATE    -6633.82      RIVX
 BOUNDARY      8   LAYER   1   ROW     8   COL    15   RATE    -6487.08      RIVX
 BOUNDARY      9   LAYER   1   ROW     9   COL    15   RATE    -2690.15      RIVX
 BOUNDARY     10   LAYER   1   ROW    10   COL    15   RATE    -3601.23    

 GHB LAKES          PERIOD  7   STEP 61
 BOUNDARY      1   LAYER   1   ROW     3   COL     1   RATE    -15633.6    
 BOUNDARY      2   LAYER   1   ROW     7   COL     1   RATE    -2749.53      GHB2_UPPER
 BOUNDARY      3   LAYER   1   ROW     7   COL     1   RATE    -13560.8      GHB2_LOWER
 UBDSV4 SAVING RECHARGE         ON UNIT   1016 AT TIME STEP     61, STRESS PERIOD      7

 RECHARGE           PERIOD  7   STEP 61
 BOUNDARY      1   LAYER   1   ROW     1   COL     1   RATE     830.208    
 BOUNDARY      2   LAYER   1   ROW     1   COL     2   RATE     830.208    
 BOUNDARY      3   LAYER   1   ROW     1   COL     3   RATE     830.208    
 BOUNDARY      4   LAYER   1   ROW     1   COL     4   RATE     830.208    
 BOUNDARY      5   LAYER   1   ROW     1   COL     5   RATE     830.208    
 BOUNDARY      6   LAYER   1   ROW     1   COL     6   RATE     830.208    
 BOUNDARY      7   LAYER   1   ROW     1   COL     7   RATE     830.208    
 BOUNDARY      8   LAYER   1   ROW     1   COL     8   RATE     830.208    
 BOUNDARY      9   LAYER   1   ROW     1   COL     9   RATE     830.208    
 BOUNDARY     10   LAYER   1   ROW     1   COL    10   RATE     830.208    
 BOUNDARY     11   LAYER   1   ROW     1   COL    11   RATE     830.208    
 BOUNDARY     12   LAYER   1   ROW     1   COL    12   RATE     830.208    
 BOUNDARY     13   LAYER   1   ROW     1   COL    13   RATE     830.208    
 BOUNDARY     14   LAYER   1   ROW     1   COL    14   RATE     830.208    
 BOUNDARY     15   LAYER   1   ROW     1   COL    15   RATE     830.208    
 BOUNDARY     16   LAYER   1   ROW     2   COL     1   RATE     830.208    
 BOUNDARY     17   LAYER   1   ROW     2   COL     2   RATE     830.208    
 BOUNDARY     18   LAYER   1   ROW     2   COL     3   RATE     830.208    
 BOUNDARY     19   LAYER   1   ROW     2   COL     4   RATE     830.208    
 BOUNDARY     20   LAYER   1   ROW     2   COL     5   RATE     830.208    
 BOUNDARY     21   LAYER   1   ROW     2   COL     6   RATE     830.208    
 BOUNDARY     22   LAYER   1   ROW     2   COL     7   RATE     830.208    
 BOUNDARY     23   LAYER   1   ROW     2   COL     8   RATE     830.208    
 BOUNDARY     24   LAYER   1   ROW     2   COL     9   RATE     830.208    
 BOUNDARY     25   LAYER   1   ROW     2   COL    10   RATE     830.208    
 BOUNDARY     26   LAYER   1   ROW     2   COL    11   RATE     830.208    
 BOUNDARY     27   LAYER   1   ROW     2   COL    12   RATE     830.208    
 BOUNDARY     28   LAYER   1   ROW     2   COL    13   RATE     830.208    
 BOUNDARY     29   LAYER   1   ROW     2   COL    14   RATE     830.208    
 BOUNDARY     30   LAYER   1   ROW     2   COL    15   RATE     830.208    
 BOUNDARY     31   LAYER   1   ROW     3   COL     1   RATE     830.208    
 BOUNDARY     32   LAYER   1   ROW     3   COL     2   RATE     830.208    
 BOUNDARY     33   LAYER   1   ROW     3   COL     3   RATE     830.208    
 BOUNDARY     34   LAYER   1   ROW     3   COL     4   RATE     830.208    
 BOUNDARY     35   LAYER   1   ROW     3   COL     5   RATE     830.208    
 BOUNDARY     36   LAYER   1   ROW     3   COL     6   RATE     830.208    
 BOUNDARY     37   LAYER   1   ROW     3   COL     7   RATE     830.208    
 BOUNDARY     38   LAYER   1   ROW     3   COL     8   RATE     830.208    
 BOUNDARY     39   LAYER   1   ROW     3   COL     9   RATE     830.208    
 BOUNDARY     40   LAYER   1   ROW     3   COL    10   RATE     830.208    
 BOUNDARY     41   LAYER   1   ROW     3   COL    11   RATE     830.208    
 BOUNDARY     42   LAYER   1   ROW     3   COL    12   RATE     830.208    
 BOUNDARY     43   LAYER   1   ROW     3   COL    13   RATE     830.208    
 BOUNDARY     44   LAYER   1   ROW     3   COL    14   RATE     830.208    
 BOUNDARY     45   LAYER   1   ROW     3   COL    15   RATE     830.208    
 BOUNDARY     46   LAYER   1   ROW     4   COL     1   RATE     830.208    
 BOUNDARY     47   LAYER   1   ROW     4   COL     2   RATE     830.208    
 BOUNDARY     48   LAYER   1   ROW     4   COL     3   RATE     830.208    
 BOUNDARY     49   LAYER   1   ROW     4   COL     4   RATE     830.208    
 BOUNDARY     50   LAYER   1   ROW     4   COL     5   RATE     830.208    
 BOUNDARY     51   LAYER   1   ROW     4   COL     6   RATE     830.208    
 BOUNDARY     52   LAYER   1   ROW     4   COL     7   RATE     830.208    
 BOUNDARY     53   LAYER   1   ROW     4   COL     8   RATE     830.208    
 BOUNDARY     54   LAYER   1   ROW     4   COL     9   RATE     830.208    
 BOUNDARY     55   LAYER   1   ROW     4   COL    10   RATE     830.208    
 BOUNDARY     56   LAYER   1   ROW     4   COL    11   RATE     830.208    
 BOUNDARY     57   LAYER   1   ROW     4   COL    12   RATE     830.208    
 BOUNDARY     58   LAYER   1   ROW     4   COL    13   RATE     830.208    
 BOUNDARY     59   LAYER   1   ROW     4   COL    14   RATE     830.208    
 BOUNDARY     60   LAYER   1   ROW     4   COL    15   RATE     830.208    
 BOUNDARY     61   LAYER   1   ROW     5   COL     1   RATE     830.208    
 BOUNDARY     62   LAYER   1   ROW     5   COL     2   RATE     830.208    
 BOUNDARY     63   LAYER   1   ROW     5   COL     3   RATE     830.208    
 BOUNDARY     64   LAYER   1   ROW     5   COL     4   RATE     830.208    
 BOUNDARY     65   LAYER   1   ROW     5   COL     5   RATE     830.208    
 BOUNDARY     66   LAYER   1   ROW     5   COL     6   RATE     830.208    
 BOUNDARY     67   LAYER   1   ROW     5   COL     7   RATE     830.208    
 BOUNDARY     68   LAYER   1   ROW     5   COL     8   RATE     830.208    
 BOUNDARY     69   LAYER   1   ROW     5   COL     9   RATE     830.208    
 BOUNDARY     70   LAYER   1   ROW     5   COL    10   RATE     830.208    
 BOUNDARY     71   LAYER   1   ROW     5   COL    11   RATE     830.208    
 BOUNDARY     72   LAYER   1   ROW     5   COL    12   RATE     830.208    
 BOUNDARY     73   LAYER   1   ROW     5   COL    13   RATE     830.208    
 BOUNDARY     74   LAYER   1   ROW     5   COL    14   RATE     830.208    
 BOUNDARY     75   LAYER   1   ROW     5   COL    15   RATE     830.208    
 BOUNDARY     76   LAYER   1   ROW     6   COL     1   RATE     830.208    
 BOUNDARY     77   LAYER   1   ROW     6   COL     2   RATE     830.208    
 BOUNDARY     78   LAYER   1   ROW     6   COL     3   RATE     830.208    
 BOUNDARY     79   LAYER   1   ROW     6   COL     4   RATE     830.208    
 BOUNDARY     80   LAYER   1   ROW     6   COL     5   RATE     830.208    
 BOUNDARY     81   LAYER   1   ROW     6   COL     6   RATE     830.208    
 BOUNDARY     82   LAYER   1   ROW     6   COL     7   RATE     830.208    
 BOUNDARY     83   LAYER   1   ROW     6   COL     8   RATE     830.208    
 BOUNDARY     84   LAYER   1   ROW     6   COL     9   RATE     830.208    
 BOUNDARY     85   LAYER   1   ROW     6   COL    10   RATE     830.208    
 BOUNDARY     86   LAYER   1   ROW     6   COL    11   RATE     830.208    
 BOUNDARY     87   LAYER   1   ROW     6   COL    12   RATE     830.208    
 BOUNDARY     88   LAYER   1   ROW     6   COL    13   RATE     830.208    
 BOUNDARY     89   LAYER   1   ROW     6   COL    14   RATE     830.208    
 BOUNDARY     90   LAYER   1   ROW     6   COL    15   RATE     830.208    
 BOUNDARY     91   LAYER   1   ROW     7   COL     1   RATE     830.208    
 BOUNDARY     92   LAYER   1   ROW     7   COL     2   RATE     830.208    
 BOUNDARY     93   LAYER   1   ROW     7   COL     3   RATE     830.208    
 BOUNDARY     94   LAYER   1   ROW     7   COL     4   RATE     830.208    
 BOUNDARY     95   LAYER   1   ROW     7   COL     5   RATE     830.208    
 BOUNDARY     96   LAYER   1   ROW     7   COL     6   RATE     830.208    
 BOUNDARY     97   LAYER   1   ROW     7   COL     7   RATE     830.208    
 BOUNDARY     98   LAYER   1   ROW     7   COL     8   RATE     830.208    
 BOUNDARY     99   LAYER   1   ROW     7   COL     9   RATE     830.208    
 BOUNDARY    100   LAYER   1   ROW     7   COL    10   RATE     830.208    
 BOUNDARY    101   LAYER   1   ROW     7   COL    11   RATE     830.208    
 BOUNDARY    102   LAYER   1   ROW     7   COL    12   RATE     830.208    
 BOUNDARY    103   LAYER   1   ROW     7   COL    13   RATE     830.208    
 BOUNDARY    104   LAYER   1   ROW     7   COL    14   RATE     830.208    
 BOUNDARY    105   LAYER   1   ROW     7   COL    15   RATE     830.208    
 BOUNDARY    106   LAYER   1   ROW     8   COL     1   RATE     830.208    
 BOUNDARY    107   LAYER   1   ROW     8   COL     2   RATE     830.208    
 BOUNDARY    108   LAYER   1   ROW     8   COL     3   RATE     830.208    
 BOUNDARY    109   LAYER   1   ROW     8   COL     4   RATE     830.208    
 BOUNDARY    110   LAYER   1   ROW     8   COL     5   RATE     830.208    
 BOUNDARY    111   LAYER   1   ROW     8   COL     6   RATE     830.208    
 BOUNDARY    112   LAYER   1   ROW     8   COL     7   RATE     830.208    
 BOUNDARY    113   LAYER   1   ROW     8   COL     8   RATE     830.208    
 BOUNDARY    114   LAYER   1   ROW     8   COL     9   RATE     830.208    
 BOUNDARY    115   LAYER   1   ROW     8   COL    10   RATE     830.208    
 BOUNDARY    116   LAYER   1   ROW     8   COL    11   RATE     830.208    
 BOUNDARY    117   LAYER   1   ROW     8   COL    12   RATE     830.208    
 BOUNDARY    118   LAYER   1   ROW     8   COL    13   RATE     830.208    
 BOUNDARY    119   LAYER   1   ROW     8   COL    14   RATE     830.208    
 BOUNDARY    120   LAYER   1   ROW     8   COL    15   RATE     830.208    
 BOUNDARY    121   LAYER   1   ROW     9   COL     1   RATE     830.208    
 BOUNDARY    122   LAYER   1   ROW     9   COL     2   RATE     830.208    
 BOUNDARY    123   LAYER   1   ROW     9   COL     3   RATE     830.208    
 BOUNDARY    124   LAYER   1   ROW     9   COL     4   RATE     830.208    
 BOUNDARY    125   LAYER   1   ROW     9   COL     5   RATE     830.208    
 BOUNDARY    126   LAYER   1   ROW     9   COL     6   RATE     830.208    
 BOUNDARY    127   LAYER   1   ROW     9   COL     7   RATE     830.208    
 BOUNDARY    128   LAYER   1   ROW     9   COL     8   RATE     830.208    
 BOUNDARY    129   LAYER   1   ROW     9   COL     9   RATE     830.208    
 BOUNDARY    130   LAYER   1   ROW     9   COL    10   RATE     830.208    
 BOUNDARY    131   LAYER   1   ROW     9   COL    11   RATE     830.208    
 BOUNDARY    132   LAYER   1   ROW     9   COL    12   RATE     830.208    
 BOUNDARY    133   LAYER   1   ROW     9   COL    13   RATE     830.208    
 BOUNDARY    134   LAYER   1   ROW     9   COL    14   RATE     830.208    
 BOUNDARY    135   LAYER   1   ROW     9   COL    15   RATE     830.208    
 BOUNDARY    136   LAYER   1   ROW    10   COL     1   RATE     830.208    
 BOUNDARY    137   LAYER   1   ROW    10   COL     2   RATE     830.208    
 BOUNDARY    138   LAYER   1   ROW    10   COL     3   RATE     830.208    
 BOUNDARY    139   LAYER   1   ROW    10   COL     4   RATE     830.208    
 BOUNDARY    140   LAYER   1   ROW    10   COL     5   RATE     830.208    
 BOUNDARY    141   LAYER   1   ROW    10   COL     6   RATE     830.208    
 BOUNDARY    142   LAYER   1   ROW    10   COL     7   RATE     830.208    
 BOUNDARY    143   LAYER   1   ROW    10   COL     8   RATE     830.208    
 BOUNDARY    144   LAYER   1   ROW    10   COL     9   RATE     830.208    
 BOUNDARY    145   LAYER   1   ROW    10   COL    10   RATE     830.208    
 BOUNDARY    146   LAYER   1   ROW    10   COL    11   RATE     830.208    
 BOUNDARY    147   LAYER   1   ROW    10   COL    12   RATE     830.208    
 BOUNDARY    148   LAYER   1   ROW    10   COL    13   RATE     830.208    
 BOUNDARY    149   LAYER   1   ROW    10   COL    14   RATE     830.208    
 BOUNDARY    150   LAYER   1   ROW    10   COL    15   RATE     830.208    
 UBDSV4 SAVING ET SEGS          ON UNIT   1016 AT TIME STEP     61, STRESS PERIOD      7

 ET SEGS            PERIOD  7   STEP 61
 BOUNDARY      1   LAYER   1   ROW     1   COL     1   RATE    -7.93542    
 BOUNDARY      2   LAYER   1   ROW     1   COL     2   RATE    -25.9249    
 BOUNDARY      3   LAYER   1   ROW     1   COL     3   RATE    -136.458    
 BOUNDARY      4   LAYER   1   ROW     1   COL     4   RATE    -136.458    
 BOUNDARY      5   LAYER   1   ROW     1   COL     5   RATE    -136.458    
 BOUNDARY      6   LAYER   1   ROW     1   COL     6   RATE    -136.458    
 BOUNDARY      7   LAYER   1   ROW     1   COL     7   RATE    -136.458    
 BOUNDARY      8   LAYER   1   ROW     1   COL     8   RATE    -136.458    
 BOUNDARY      9   LAYER   1   ROW     1   COL     9   RATE    -136.458    
 BOUNDARY     10   LAYER   1   ROW     1   COL    10   RATE    -136.458    
 BOUNDARY     11   LAYER   1   ROW     1   COL    11   RATE    -136.458    
 BOUNDARY     12   LAYER   1   ROW     1   COL    12   RATE    -40.2059    
 BOUNDARY     13   LAYER   1   ROW     1   COL    13   RATE    -3.81429    
 BOUNDARY     14   LAYER   1   ROW     1   COL    14   RATE     0.00000    
 BOUNDARY     15   LAYER   1   ROW     1   COL    15   RATE     0.00000    
 BOUNDARY     16   LAYER   1   ROW     2   COL     1   RATE     0.00000    
 BOUNDARY     17   LAYER   1   ROW     2   COL     2   RATE    -11.0181    
 BOUNDARY     18   LAYER   1   ROW     2   COL     3   RATE    -114.712    
 BOUNDARY     19   LAYER   1   ROW     2   COL     4   RATE    -136.458    
 BOUNDARY     20   LAYER   1   ROW     2   COL     5   RATE    -136.458    
 BOUNDARY     21   LAYER   1   ROW     2   COL     6   RATE    -136.458    
 BOUNDARY     22   LAYER   1   ROW     2   COL     7   RATE    -136.458    
 BOUNDARY     23   LAYER   1   ROW     2   COL     8   RATE    -136.458    
 BOUNDARY     24   LAYER   1   ROW     2   COL     9   RATE    -136.458    
 BOUNDARY     25   LAYER   1   ROW     2   COL    10   RATE    -136.458    
 BOUNDARY     26   LAYER   1   ROW     2   COL    11   RATE    -136.458    
 BOUNDARY     27   LAYER   1   ROW     2   COL    12   RATE    -49.3165    
 BOUNDARY     28   LAYER   1   ROW     2   COL    13   RATE    -5.15114    
 BOUNDARY     29   LAYER   1   ROW     2   COL    14   RATE     0.00000    
 BOUNDARY     30   LAYER   1   ROW     2   COL    15   RATE     0.00000    
 BOUNDARY     31   LAYER   1   ROW     3   COL     1   RATE     0.00000    
 BOUNDARY     32   LAYER   1   ROW     3   COL     2   RATE    -1.31052    
 BOUNDARY     33   LAYER   1   ROW     3   COL     3   RATE    -71.9713    
 BOUNDARY     34   LAYER   1   ROW     3   COL     4   RATE    -136.458    
 BOUNDARY     35   LAYER   1   ROW     3   COL     5   RATE    -136.458    
 BOUNDARY     36   LAYER   1   ROW     3   COL     6   RATE    -136.458    
 BOUNDARY     37   LAYER   1   ROW     3   COL     7   RATE    -136.458    
 BOUNDARY     38   LAYER   1   ROW     3   COL     8   RATE    -136.458    
 BOUNDARY     39   LAYER   1   ROW     3   COL     9   RATE    -136.458    
 BOUNDARY     40   LAYER   1   ROW     3   COL    10   RATE    -136.458    
 BOUNDARY     41   LAYER   1   ROW     3   COL    11   RATE    -136.458    
 BOUNDARY     42   LAYER   1   ROW     3   COL    12   RATE    -69.5058    
 BOUNDARY     43   LAYER   1   ROW     3   COL    13   RATE    -7.57445    
 BOUNDARY     44   LAYER   1   ROW     3   COL    14   RATE     0.00000    
 BOUNDARY     45   LAYER   1   ROW     3   COL    15   RATE     0.00000    
 BOUNDARY     46   LAYER   1   ROW     4   COL     1   RATE     0.00000    
 BOUNDARY     47   LAYER   1   ROW     4   COL     2   RATE    -8.93524    
 BOUNDARY     48   LAYER   1   ROW     4   COL     3   RATE    -99.8555    
 BOUNDARY     49   LAYER   1   ROW     4   COL     4   RATE    -136.458    
 BOUNDARY     50   LAYER   1   ROW     4   COL     5   RATE    -136.458    
 BOUNDARY     51   LAYER   1   ROW     4   COL     6   RATE    -136.458    
 BOUNDARY     52   LAYER   1   ROW     4   COL     7   RATE    -136.458    
 BOUNDARY     53   LAYER   1   ROW     4   COL     8   RATE    -136.458    
 BOUNDARY     54   LAYER   1   ROW     4   COL     9   RATE    -136.458    
 BOUNDARY     55   LAYER   1   ROW     4   COL    10   RATE    -136.458    
 BOUNDARY     56   LAYER   1   ROW     4   COL    11   RATE    -136.458    
 BOUNDARY     57   LAYER   1   ROW     4   COL    12   RATE    -88.3809    
 BOUNDARY     58   LAYER   1   ROW     4   COL    13   RATE    -9.51914    
 BOUNDARY     59   LAYER   1   ROW     4   COL    14   RATE     0.00000    
 BOUNDARY     60   LAYER   1   ROW     4   COL    15   RATE     0.00000    
 BOUNDARY     61   LAYER   1   ROW     5   COL     1   RATE   -0.128533    
 BOUNDARY     62   LAYER   1   ROW     5   COL     2   RATE    -13.0844    
 BOUNDARY     63   LAYER   1   ROW     5   COL     3   RATE    -127.678    
 BOUNDARY     64   LAYER   1   ROW     5   COL     4   RATE    -136.458    
 BOUNDARY     65   LAYER   1   ROW     5   COL     5   RATE    -136.458    
 BOUNDARY     66   LAYER   1   ROW     5   COL     6   RATE    -136.458    
 BOUNDARY     67   LAYER   1   ROW     5   COL     7   RATE    -136.458    
 BOUNDARY     68   LAYER   1   ROW     5   COL     8   RATE    -136.458    
 BOUNDARY     69   LAYER   1   ROW     5   COL     9   RATE    -136.458    
 BOUNDARY     70   LAYER   1   ROW     5   COL    10   RATE    -136.458    
 BOUNDARY     71   LAYER   1   ROW     5   COL    11   RATE    -136.458    
 BOUNDARY     72   LAYER   1   ROW     5   COL    12   RATE    -101.184    
 BOUNDARY     73   LAYER   1   ROW     5   COL    13   RATE    -10.6891    
 BOUNDARY     74   LAYER   1   ROW     5   COL    14   RATE     0.00000    
 BOUNDARY     75   LAYER   1   ROW     5   COL    15   RATE     0.00000    
 BOUNDARY     76   LAYER   1   ROW     6   COL     1   RATE     0.00000    
 BOUNDARY     77   LAYER   1   ROW     6   COL     2   RATE    -10.9616    
 BOUNDARY     78   LAYER   1   ROW     6   COL     3   RATE    -131.864    
 BOUNDARY     79   LAYER   1   ROW     6   COL     4   RATE    -136.458    
 BOUNDARY     80   LAYER   1   ROW     6   COL     5   RATE    -136.458    
 BOUNDARY     81   LAYER   1   ROW     6   COL     6   RATE    -136.458    
 BOUNDARY     82   LAYER   1   ROW     6   COL     7   RATE    -136.458    
 BOUNDARY     83   LAYER   1   ROW     6   COL     8   RATE    -136.458    
 BOUNDARY     84   LAYER   1   ROW     6   COL     9   RATE    -136.458    
 BOUNDARY     85   LAYER   1   ROW     6   COL    10   RATE    -136.458    
 BOUNDARY     86   LAYER   1   ROW     6   COL    11   RATE    -136.458    
 BOUNDARY     87   LAYER   1   ROW     6   COL    12   RATE    -105.418    
 BOUNDARY     88   LAYER   1   ROW     6   COL    13   RATE    -10.6136    
 BOUNDARY     89   LAYER   1   ROW     6   COL    14   RATE     0.00000    
 BOUNDARY     90   LAYER   1   ROW     6   COL    15   RATE     0.00000    
 BOUNDARY     91   LAYER   1   ROW     7   COL     1   RATE     0.00000    
 BOUNDARY     92   LAYER   1   ROW     7   COL     2   RATE    -5.80627    
 BOUNDARY     93   LAYER   1   ROW     7   COL     3   RATE    -136.458    
 BOUNDARY     94   LAYER   1   ROW     7   COL     4   RATE    -136.458    
 BOUNDARY     95   LAYER   1   ROW     7   COL     5   RATE    -136.458    
 BOUNDARY     96   LAYER   1   ROW     7   COL     6   RATE    -136.458    
 BOUNDARY     97   LAYER   1   ROW     7   COL     7   RATE    -136.458    
 BOUNDARY     98   LAYER   1   ROW     7   COL     8   RATE    -136.458    
 BOUNDARY     99   LAYER   1   ROW     7   COL     9   RATE    -136.458    
 BOUNDARY    100   LAYER   1   ROW     7   COL    10   RATE    -136.458    
 BOUNDARY    101   LAYER   1   ROW     7   COL    11   RATE    -136.458    
 BOUNDARY    102   LAYER   1   ROW     7   COL    12   RATE    -104.492    
 BOUNDARY    103   LAYER   1   ROW     7   COL    13   RATE    -9.66107    
 BOUNDARY    104   LAYER   1   ROW     7   COL    14   RATE     0.00000    
 BOUNDARY    105   LAYER   1   ROW     7   COL    15   RATE     0.00000    
 BOUNDARY    106   LAYER   1   ROW     8   COL     1   RATE    -2.11701    
 BOUNDARY    107   LAYER   1   ROW     8   COL     2   RATE    -31.3313    
 BOUNDARY    108   LAYER   1   ROW     8   COL     3   RATE    -136.458    
 BOUNDARY    109   LAYER   1   ROW     8   COL     4   RATE    -136.458    
 BOUNDARY    110   LAYER   1   ROW     8   COL     5   RATE    -136.458    
 BOUNDARY    111   LAYER   1   ROW     8   COL     6   RATE    -136.458    
 BOUNDARY    112   LAYER   1   ROW     8   COL     7   RATE    -136.458    
 BOUNDARY    113   LAYER   1   ROW     8   COL     8   RATE    -136.458    
 BOUNDARY    114   LAYER   1   ROW     8   COL     9   RATE    -136.458    
 BOUNDARY    115   LAYER   1   ROW     8   COL    10   RATE    -136.458    
 BOUNDARY    116   LAYER   1   ROW     8   COL    11   RATE    -136.458    
 BOUNDARY    117   LAYER   1   ROW     8   COL    12   RATE    -107.646    
 BOUNDARY    118   LAYER   1   ROW     8   COL    13   RATE    -9.73803    
 BOUNDARY    119   LAYER   1   ROW     8   COL    14   RATE     0.00000    
 BOUNDARY    120   LAYER   1   ROW     8   COL    15   RATE     0.00000    
 BOUNDARY    121   LAYER   1   ROW     9   COL     1   RATE    -45.7974    
 BOUNDARY    122   LAYER   1   ROW     9   COL     2   RATE    -136.458    
 BOUNDARY    123   LAYER   1   ROW     9   COL     3   RATE    -136.458    
 BOUNDARY    124   LAYER   1   ROW     9   COL     4   RATE    -136.458    
 BOUNDARY    125   LAYER   1   ROW     9   COL     5   RATE    -136.458    
 BOUNDARY    126   LAYER   1   ROW     9   COL     6   RATE    -136.458    
 BOUNDARY    127   LAYER   1   ROW     9   COL     7   RATE    -136.458    
 BOUNDARY    128   LAYER   1   ROW     9   COL     8   RATE    -136.458    
 BOUNDARY    129   LAYER   1   ROW     9   COL     9   RATE    -136.458    
 BOUNDARY    130   LAYER   1   ROW     9   COL    10   RATE    -136.458    
 BOUNDARY    131   LAYER   1   ROW     9   COL    11   RATE    -136.458    
 BOUNDARY    132   LAYER   1   ROW     9   COL    12   RATE    -115.779    
 BOUNDARY    133   LAYER   1   ROW     9   COL    13   RATE    -10.9350    
 BOUNDARY    134   LAYER   1   ROW     9   COL    14   RATE     0.00000    
 BOUNDARY    135   LAYER   1   ROW     9   COL    15   RATE     0.00000    
 BOUNDARY    136   LAYER   1   ROW    10   COL     1   RATE    -136.458    
 BOUNDARY    137   LAYER   1   ROW    10   COL     2   RATE    -136.458    
 BOUNDARY    138   LAYER   1   ROW    10   COL     3   RATE    -136.458    
 BOUNDARY    139   LAYER   1   ROW    10   COL     4   RATE    -136.458    
 BOUNDARY    140   LAYER   1   ROW    10   COL     5   RATE    -136.458    
 BOUNDARY    141   LAYER   1   ROW    10   COL     6   RATE    -136.458    
 BOUNDARY    142   LAYER   1   ROW    10   COL     7   RATE    -136.458    
 BOUNDARY    143   LAYER   1   ROW    10   COL     8   RATE    -136.458    
 BOUNDARY    144   LAYER   1   ROW    10   COL     9   RATE    -136.458    
 BOUNDARY    145   LAYER   1   ROW    10   COL    10   RATE    -136.458    
 BOUNDARY    146   LAYER   1   ROW    10   COL    11   RATE    -136.458    
 BOUNDARY    147   LAYER   1   ROW    10   COL    12   RATE    -121.586    
 BOUNDARY    148   LAYER   1   ROW    10   COL    13   RATE    -11.6984    
 BOUNDARY    149   LAYER   1   ROW    10   COL    14   RATE     0.00000    
 BOUNDARY    150   LAYER   1   ROW    10   COL    15   RATE     0.00000    
1
  HEAD             IN LAYER   1 AT END OF TIME STEP  61 IN STRESS PERIOD    7
  ---------------------------------------------------------------------------

           1          2          3          4          5          6          7          8
 ........................................................................................
   1   132.90763  136.34976  140.35260  143.89095  146.57702  148.32310  149.12023  148.96754
   2   127.42507  134.03717  139.54469  143.62169  146.50304  148.32143  149.14782  149.01143
   3   110.40161  130.48019  138.64978  143.38233  146.46787  148.35907  149.21578  149.09868
   4   126.14598  133.27398  139.23362  143.57191  146.59231  148.47659  149.33525  149.22496
   5   130.04710  134.79429  139.81616  143.88980  146.82142  148.66603  149.50270  149.38085
   6   126.83629  134.01646  139.90381  144.17985  147.11127  148.91407  149.71875  149.55801
   7   111.95975  132.12749  140.08132  144.63060  147.50832  149.23968  150.29611  149.78459
   8   130.77570  136.94405  141.93121  145.55788  148.06330  149.69875  150.85769  150.47941
   9   138.10176  140.66529  143.76609  146.50545  148.63728  150.56375  151.37881  150.87333
  10   140.89698  142.50059  144.80222  147.07611  149.00561  150.93694  151.64972  151.06488
1
  HEAD             IN LAYER   1 AT END OF TIME STEP  61 IN STRESS PERIOD    7
  ---------------------------------------------------------------------------

           9         10         11         12         13         14         15
 .............................................................................
   1   147.84741  145.71169  142.46391  137.91958  131.39760  121.79763  106.29539
   2   147.90858  145.80188  142.60999  138.17544  131.88744  122.69619  107.41816
   3   148.02018  145.95771  142.85324  138.59816  132.77537  124.82962  114.18026
   4   148.16383  146.13896  143.10857  138.99336  133.48793  126.06562  115.63981
   5   148.32060  146.31141  143.31528  139.26144  133.91662  126.88684  117.87528
   6   148.47719  146.45738  143.44746  139.35008  133.88895  126.56379  117.22205
   7   148.63055  146.58016  143.53076  139.33070  133.53993  125.01712  110.58770
   8   148.80610  146.69380  143.62235  139.39673  133.56813  124.96400  110.43559
   9   148.98241  146.79636  143.72798  139.56702  134.00670  126.38856  116.16616
  10   149.08614  146.85882  143.79812  139.68861  134.28643  127.00667  117.06557
1
  HEAD             IN LAYER   2 AT END OF TIME STEP  61 IN STRESS PERIOD    7
  ---------------------------------------------------------------------------

           1          2          3          4          5          6          7          8
 ........................................................................................
   1   133.73848  136.02928  139.21167  142.30108  144.79214  146.46436  147.22866  147.04517
   2   131.88827  135.00338  138.76106  142.13232  144.74710  146.47190  147.25990  147.09095
   3   129.17822  133.84308  138.33150  142.00308  144.74265  146.52058  147.33344  147.18183
   4   131.21310  134.56480  138.58571  142.14390  144.86598  146.64449  147.46004  147.31436
   5   132.45291  135.28741  139.00503  142.43486  145.09906  146.84563  147.64122  147.48278
   6   132.08495  135.39862  139.33336  142.79277  145.41935  147.12049  147.88079  147.68569
   7   131.05071  135.60485  139.87920  143.32031  145.85328  147.47972  148.20711  147.93553
   8   135.02943  137.85457  141.18581  144.13402  146.40690  147.91533  148.58815  148.25225
   9   138.33427  140.08034  142.53360  144.94827  146.94462  148.36046  148.93311  148.51276
  10   140.03602  141.33530  143.33684  145.44330  147.27146  148.61702  149.12997  148.65772
1
  HEAD             IN LAYER   2 AT END OF TIME STEP  61 IN STRESS PERIOD    7
  ---------------------------------------------------------------------------

           9         10         11         12         13         14         15
 .............................................................................
   1   145.88394  143.70792  140.46922  136.12109  130.66709  124.47485  118.99780
   2   145.94604  143.79725  140.60884  136.35330  131.06254  125.11607  119.88471
   3   146.05984  143.95245  140.84248  136.73508  131.72358  126.26980  121.78623
   4   146.20822  144.13625  141.09556  137.11463  132.32314  127.19091  123.01972
   5   146.37467  144.31641  141.30984  137.39051  132.70299  127.73092  123.78445
   6   146.55019  144.47731  141.46204  137.52433  132.78249  127.68464  123.56975
   7   146.73594  144.62259  141.57267  137.57497  132.68681  127.23316  122.42647
   8   146.93331  144.76128  141.68221  137.66435  132.75240  127.26023  122.40848
   9   147.10201  144.88065  141.79235  137.80846  133.01296  127.81270  123.53786
  10   147.19889  144.95125  141.86327  137.91221  133.20428  128.16957  124.09098

 HEAD WILL BE SAVED ON UNIT 1017 AT END OF TIME STEP   61, STRESS PERIOD    7
1
  VOLUME BUDGET FOR ENTIRE MODEL AT END OF TIME STEP   61, STRESS PERIOD   7
  ------------------------------------------------------------------------------

     CUMULATIVE VOLUME      L**3       RATES FOR THIS TIME STEP      L**3/T
     ------------------                 ------------------------

           IN:                                      IN:
           ---                                      ---
             STORAGE =       53094.4490               STORAGE =           0.0000
    WELLS NEAR RIVER =           0.0000      WELLS NEAR RIVER =           0.0000
               RIVER =           0.0000                 RIVER =           0.0000
           GHB LAKES =           0.0000             GHB LAKES =           0.0000
            RECHARGE =    23803031.2500              RECHARGE =      124531.2500
             ET SEGS =           0.0000               ET SEGS =           0.0000

            TOTAL IN =    23856125.6990              TOTAL IN =      124531.2500

          OUT:                                     OUT:
          ----                                     ----
             STORAGE =     6785671.9320               STORAGE =       35963.1029
    WELLS NEAR RIVER =        5570.0000      WELLS NEAR RIVER =           0.0000
               RIVER =     8356070.2287                 RIVER =       42912.5622
           GHB LAKES =     6482670.1411             GHB LAKES =       31943.9110
            RECHARGE =           0.0000              RECHARGE =           0.0000
             ET SEGS =     2226143.3989               ET SEGS =       13711.6740

           TOTAL OUT =    23856125.7008             TOTAL OUT =      124531.2501

            IN - OUT =      -1.8304E-03              IN - OUT =      -9.6866E-05

 PERCENT DISCREPANCY =          -0.00     PERCENT DISCREPANCY =          -0.00






         TIME SUMMARY AT END OF TIME STEP   61 IN STRESS PERIOD    7
                    SECONDS     MINUTES      HOURS       DAYS        YEARS
                    -----------------------------------------------------------
   TIME STEP LENGTH  86400.      1440.0      24.000     1.00000     2.73785E-03
 STRESS PERIOD TIME 5.27040E+06  87840.      1464.0      61.000     0.16701    
         TOTAL TIME 1.84032E+07 3.06720E+05  5112.0      213.00     0.58316    
RIV   no.    1 value from time series:   101.00     for time:  213.0     to  214.0    
RIV   no.    2 value from time series:   101.00     for time:  213.0     to  214.0    
RIV   no.    3 value from time series:   111.50     for time:  213.0     to  214.0    
RIV   no.    4 value from time series:   111.50     for time:  213.0     to  214.0    
RIV   no.    5 value from time series:   115.10     for time:  213.0     to  214.0    
RIV   no.    6 value from time series:   115.10     for time:  213.0     to  214.0    
RIV   no.    7 value from time series:   104.00     for time:  213.0     to  214.0    
RIV   no.    8 value from time series:   104.00     for time:  213.0     to  214.0    
RIV   no.    9 value from time series:   113.50     for time:  213.0     to  214.0    
RIV   no.   10 value from time series:   113.50     for time:  213.0     to  214.0    
RIV   no.    1 value from time series:   101.00     for time:  213.0     to  214.0    
RIV   no.    2 value from time series:   101.00     for time:  213.0     to  214.0    
RIV   no.    3 value from time series:   111.50     for time:  213.0     to  214.0    
RIV   no.    4 value from time series:   111.50     for time:  213.0     to  214.0    
RIV   no.    5 value from time series:   115.10     for time:  213.0     to  214.0    
RIV   no.    6 value from time series:   115.10     for time:  213.0     to  214.0    
RIV   no.    7 value from time series:   104.00     for time:  213.0     to  214.0    
RIV   no.    8 value from time series:   104.00     for time:  213.0     to  214.0    
RIV   no.    9 value from time series:   113.50     for time:  213.0     to  214.0    
RIV   no.   10 value from time series:   113.50     for time:  213.0     to  214.0    

 NO OUTPUT CONTROL FOR STRESS PERIOD    7   TIME STEP   62
RIV   no.    1 value from time series:   101.00     for time:  214.0     to  215.0    
RIV   no.    2 value from time series:   101.00     for time:  214.0     to  215.0    
RIV   no.    3 value from time series:   111.50     for time:  214.0     to  215.0    
RIV   no.    4 value from time series:   111.50     for time:  214.0     to  215.0    
RIV   no.    5 value from time series:   115.10     for time:  214.0     to  215.0    
RIV   no.    6 value from time series:   115.10     for time:  214.0     to  215.0    
RIV   no.    7 value from time series:   104.00     for time:  214.0     to  215.0    
RIV   no.    8 value from time series:   104.00     for time:  214.0     to  215.0    
RIV   no.    9 value from time series:   113.50     for time:  214.0     to  215.0    
RIV   no.   10 value from time series:   113.50     for time:  214.0     to  215.0    
RIV   no.    1 value from time series:   101.00     for time:  214.0     to  215.0    
RIV   no.    2 value from time series:   101.00     for time:  214.0     to  215.0    
RIV   no.    3 value from time series:   111.50     for time:  214.0     to  215.0    
RIV   no.    4 value from time series:   111.50     for time:  214.0     to  215.0    
RIV   no.    5 value from time series:   115.10     for time:  214.0     to  215.0    
RIV   no.    6 value from time series:   115.10     for time:  214.0     to  215.0    
RIV   no.    7 value from time series:   104.00     for time:  214.0     to  215.0    
RIV   no.    8 value from time series:   104.00     for time:  214.0     to  215.0    
RIV   no.    9 value from time series:   113.50     for time:  214.0     to  215.0    
RIV   no.   10 value from time series:   113.50     for time:  214.0     to  215.0    

 NO OUTPUT CONTROL FOR STRESS PERIOD    7   TIME STEP   63
RIV   no.    1 value from time series:   101.00     for time:  215.0     to  216.0    
RIV   no.    2 value from time series:   101.00     for time:  215.0     to  216.0    
RIV   no.    3 value from time series:   111.50     for time:  215.0     to  216.0    
RIV   no.    4 value from time series:   111.50     for time:  215.0     to  216.0    
RIV   no.    5 value from time series:   115.10     for time:  215.0     to  216.0    
RIV   no.    6 value from time series:   115.10     for time:  215.0     to  216.0    
RIV   no.    7 value from time series:   104.00     for time:  215.0     to  216.0    
RIV   no.    8 value from time series:   104.00     for time:  215.0     to  216.0    
RIV   no.    9 value from time series:   113.50     for time:  215.0     to  216.0    
RIV   no.   10 value from time series:   113.50     for time:  215.0     to  216.0    
RIV   no.    1 value from time series:   101.00     for time:  215.0     to  216.0    
RIV   no.    2 value from time series:   101.00     for time:  215.0     to  216.0    
RIV   no.    3 value from time series:   111.50     for time:  215.0     to  216.0    
RIV   no.    4 value from time series:   111.50     for time:  215.0     to  216.0    
RIV   no.    5 value from time series:   115.10     for time:  215.0     to  216.0    
RIV   no.    6 value from time series:   115.10     for time:  215.0     to  216.0    
RIV   no.    7 value from time series:   104.00     for time:  215.0     to  216.0    
RIV   no.    8 value from time series:   104.00     for time:  215.0     to  216.0    
RIV   no.    9 value from time series:   113.50     for time:  215.0     to  216.0    
RIV   no.   10 value from time series:   113.50     for time:  215.0     to  216.0    

 NO OUTPUT CONTROL FOR STRESS PERIOD    7   TIME STEP   64
RIV   no.    1 value from time series:   101.00     for time:  216.0     to  217.0    
RIV   no.    2 value from time series:   101.00     for time:  216.0     to  217.0    
RIV   no.    3 value from time series:   111.50     for time:  216.0     to  217.0    
RIV   no.    4 value from time series:   111.50     for time:  216.0     to  217.0    
RIV   no.    5 value from time series:   115.10     for time:  216.0     to  217.0    
RIV   no.    6 value from time series:   115.10     for time:  216.0     to  217.0    
RIV   no.    7 value from time series:   104.00     for time:  216.0     to  217.0    
RIV   no.    8 value from time series:   104.00     for time:  216.0     to  217.0    
RIV   no.    9 value from time series:   113.50     for time:  216.0     to  217.0    
RIV   no.   10 value from time series:   113.50     for time:  216.0     to  217.0    
RIV   no.    1 value from time series:   101.00     for time:  216.0     to  217.0    
RIV   no.    2 value from time series:   101.00     for time:  216.0     to  217.0    
RIV   no.    3 value from time series:   111.50     for time:  216.0     to  217.0    
RIV   no.    4 value from time series:   111.50     for time:  216.0     to  217.0    
RIV   no.    5 value from time series:   115.10     for time:  216.0     to  217.0    
RIV   no.    6 value from time series:   115.10     for time:  216.0     to  217.0    
RIV   no.    7 value from time series:   104.00     for time:  216.0     to  217.0    
RIV   no.    8 value from time series:   104.00     for time:  216.0     to  217.0    
RIV   no.    9 value from time series:   113.50     for time:  216.0     to  217.0    
RIV   no.   10 value from time series:   113.50     for time:  216.0     to  217.0    

 NO OUTPUT CONTROL FOR STRESS PERIOD    7   TIME STEP   65
RIV   no.    1 value from time series:   101.00     for time:  217.0     to  218.0    
RIV   no.    2 value from time series:   101.00     for time:  217.0     to  218.0    
RIV   no.    3 value from time series:   111.50     for time:  217.0     to  218.0    
RIV   no.    4 value from time series:   111.50     for time:  217.0     to  218.0    
RIV   no.    5 value from time series:   115.10     for time:  217.0     to  218.0    
RIV   no.    6 value from time series:   115.10     for time:  217.0     to  218.0    
RIV   no.    7 value from time series:   104.00     for time:  217.0     to  218.0    
RIV   no.    8 value from time series:   104.00     for time:  217.0     to  218.0    
RIV   no.    9 value from time series:   113.50     for time:  217.0     to  218.0    
RIV   no.   10 value from time series:   113.50     for time:  217.0     to  218.0    
RIV   no.    1 value from time series:   101.00     for time:  217.0     to  218.0    
RIV   no.    2 value from time series:   101.00     for time:  217.0     to  218.0    
RIV   no.    3 value from time series:   111.50     for time:  217.0     to  218.0    
RIV   no.    4 value from time series:   111.50     for time:  217.0     to  218.0    
RIV   no.    5 value from time series:   115.10     for time:  217.0     to  218.0    
RIV   no.    6 value from time series:   115.10     for time:  217.0     to  218.0    
RIV   no.    7 value from time series:   104.00     for time:  217.0     to  218.0    
RIV   no.    8 value from time series:   104.00     for time:  217.0     to  218.0    
RIV   no.    9 value from time series:   113.50     for time:  217.0     to  218.0    
RIV   no.   10 value from time series:   113.50     for time:  217.0     to  218.0    

 NO OUTPUT CONTROL FOR STRESS PERIOD    7   TIME STEP   66
RIV   no.    1 value from time series:   101.00     for time:  218.0     to  219.0    
RIV   no.    2 value from time series:   101.00     for time:  218.0     to  219.0    
RIV   no.    3 value from time series:   111.50     for time:  218.0     to  219.0    
RIV   no.    4 value from time series:   111.50     for time:  218.0     to  219.0    
RIV   no.    5 value from time series:   115.10     for time:  218.0     to  219.0    
RIV   no.    6 value from time series:   115.10     for time:  218.0     to  219.0    
RIV   no.    7 value from time series:   104.00     for time:  218.0     to  219.0    
RIV   no.    8 value from time series:   104.00     for time:  218.0     to  219.0    
RIV   no.    9 value from time series:   113.50     for time:  218.0     to  219.0    
RIV   no.   10 value from time series:   113.50     for time:  218.0     to  219.0    
RIV   no.    1 value from time series:   101.00     for time:  218.0     to  219.0    
RIV   no.    2 value from time series:   101.00     for time:  218.0     to  219.0    
RIV   no.    3 value from time series:   111.50     for time:  218.0     to  219.0    
RIV   no.    4 value from time series:   111.50     for time:  218.0     to  219.0    
RIV   no.    5 value from time series:   115.10     for time:  218.0     to  219.0    
RIV   no.    6 value from time series:   115.10     for time:  218.0     to  219.0    
RIV   no.    7 value from time series:   104.00     for time:  218.0     to  219.0    
RIV   no.    8 value from time series:   104.00     for time:  218.0     to  219.0    
RIV   no.    9 value from time series:   113.50     for time:  218.0     to  219.0    
RIV   no.   10 value from time series:   113.50     for time:  218.0     to  219.0    

 NO OUTPUT CONTROL FOR STRESS PERIOD    7   TIME STEP   67
RIV   no.    1 value from time series:   101.00     for time:  219.0     to  220.0    
RIV   no.    2 value from time series:   101.00     for time:  219.0     to  220.0    
RIV   no.    3 value from time series:   111.50     for time:  219.0     to  220.0    
RIV   no.    4 value from time series:   111.50     for time:  219.0     to  220.0    
RIV   no.    5 value from time series:   115.10     for time:  219.0     to  220.0    
RIV   no.    6 value from time series:   115.10     for time:  219.0     to  220.0    
RIV   no.    7 value from time series:   104.00     for time:  219.0     to  220.0    
RIV   no.    8 value from time series:   104.00     for time:  219.0     to  220.0    
RIV   no.    9 value from time series:   113.50     for time:  219.0     to  220.0    
RIV   no.   10 value from time series:   113.50     for time:  219.0     to  220.0    
RIV   no.    1 value from time series:   101.00     for time:  219.0     to  220.0    
RIV   no.    2 value from time series:   101.00     for time:  219.0     to  220.0    
RIV   no.    3 value from time series:   111.50     for time:  219.0     to  220.0    
RIV   no.    4 value from time series:   111.50     for time:  219.0     to  220.0    
RIV   no.    5 value from time series:   115.10     for time:  219.0     to  220.0    
RIV   no.    6 value from time series:   115.10     for time:  219.0     to  220.0    
RIV   no.    7 value from time series:   104.00     for time:  219.0     to  220.0    
RIV   no.    8 value from time series:   104.00     for time:  219.0     to  220.0    
RIV   no.    9 value from time series:   113.50     for time:  219.0     to  220.0    
RIV   no.   10 value from time series:   113.50     for time:  219.0     to  220.0    

 NO OUTPUT CONTROL FOR STRESS PERIOD    7   TIME STEP   68
RIV   no.    1 value from time series:   101.00     for time:  220.0     to  221.0    
RIV   no.    2 value from time series:   101.00     for time:  220.0     to  221.0    
RIV   no.    3 value from time series:   111.50     for time:  220.0     to  221.0    
RIV   no.    4 value from time series:   111.50     for time:  220.0     to  221.0    
RIV   no.    5 value from time series:   115.10     for time:  220.0     to  221.0    
RIV   no.    6 value from time series:   115.10     for time:  220.0     to  221.0    
RIV   no.    7 value from time series:   104.00     for time:  220.0     to  221.0    
RIV   no.    8 value from time series:   104.00     for time:  220.0     to  221.0    
RIV   no.    9 value from time series:   113.50     for time:  220.0     to  221.0    
RIV   no.   10 value from time series:   113.50     for time:  220.0     to  221.0    
RIV   no.    1 value from time series:   101.00     for time:  220.0     to  221.0    
RIV   no.    2 value from time series:   101.00     for time:  220.0     to  221.0    
RIV   no.    3 value from time series:   111.50     for time:  220.0     to  221.0    
RIV   no.    4 value from time series:   111.50     for time:  220.0     to  221.0    
RIV   no.    5 value from time series:   115.10     for time:  220.0     to  221.0    
RIV   no.    6 value from time series:   115.10     for time:  220.0     to  221.0    
RIV   no.    7 value from time series:   104.00     for time:  220.0     to  221.0    
RIV   no.    8 value from time series:   104.00     for time:  220.0     to  221.0    
RIV   no.    9 value from time series:   113.50     for time:  220.0     to  221.0    
RIV   no.   10 value from time series:   113.50     for time:  220.0     to  221.0    

 NO OUTPUT CONTROL FOR STRESS PERIOD    7   TIME STEP   69
RIV   no.    1 value from time series:   101.00     for time:  221.0     to  222.0    
RIV   no.    2 value from time series:   101.00     for time:  221.0     to  222.0    
RIV   no.    3 value from time series:   111.50     for time:  221.0     to  222.0    
RIV   no.    4 value from time series:   111.50     for time:  221.0     to  222.0    
RIV   no.    5 value from time series:   115.10     for time:  221.0     to  222.0    
RIV   no.    6 value from time series:   115.10     for time:  221.0     to  222.0    
RIV   no.    7 value from time series:   104.00     for time:  221.0     to  222.0    
RIV   no.    8 value from time series:   104.00     for time:  221.0     to  222.0    
RIV   no.    9 value from time series:   113.50     for time:  221.0     to  222.0    
RIV   no.   10 value from time series:   113.50     for time:  221.0     to  222.0    
RIV   no.    1 value from time series:   101.00     for time:  221.0     to  222.0    
RIV   no.    2 value from time series:   101.00     for time:  221.0     to  222.0    
RIV   no.    3 value from time series:   111.50     for time:  221.0     to  222.0    
RIV   no.    4 value from time series:   111.50     for time:  221.0     to  222.0    
RIV   no.    5 value from time series:   115.10     for time:  221.0     to  222.0    
RIV   no.    6 value from time series:   115.10     for time:  221.0     to  222.0    
RIV   no.    7 value from time series:   104.00     for time:  221.0     to  222.0    
RIV   no.    8 value from time series:   104.00     for time:  221.0     to  222.0    
RIV   no.    9 value from time series:   113.50     for time:  221.0     to  222.0    
RIV   no.   10 value from time series:   113.50     for time:  221.0     to  222.0    

 NO OUTPUT CONTROL FOR STRESS PERIOD    7   TIME STEP   70
RIV   no.    1 value from time series:   101.00     for time:  222.0     to  223.0    
RIV   no.    2 value from time series:   101.00     for time:  222.0     to  223.0    
RIV   no.    3 value from time series:   111.50     for time:  222.0     to  223.0    
RIV   no.    4 value from time series:   111.50     for time:  222.0     to  223.0    
RIV   no.    5 value from time series:   115.10     for time:  222.0     to  223.0    
RIV   no.    6 value from time series:   115.10     for time:  222.0     to  223.0    
RIV   no.    7 value from time series:   104.00     for time:  222.0     to  223.0    
RIV   no.    8 value from time series:   104.00     for time:  222.0     to  223.0    
RIV   no.    9 value from time series:   113.50     for time:  222.0     to  223.0    
RIV   no.   10 value from time series:   113.50     for time:  222.0     to  223.0    
RIV   no.    1 value from time series:   101.00     for time:  222.0     to  223.0    
RIV   no.    2 value from time series:   101.00     for time:  222.0     to  223.0    
RIV   no.    3 value from time series:   111.50     for time:  222.0     to  223.0    
RIV   no.    4 value from time series:   111.50     for time:  222.0     to  223.0    
RIV   no.    5 value from time series:   115.10     for time:  222.0     to  223.0    
RIV   no.    6 value from time series:   115.10     for time:  222.0     to  223.0    
RIV   no.    7 value from time series:   104.00     for time:  222.0     to  223.0    
RIV   no.    8 value from time series:   104.00     for time:  222.0     to  223.0    
RIV   no.    9 value from time series:   113.50     for time:  222.0     to  223.0    
RIV   no.   10 value from time series:   113.50     for time:  222.0     to  223.0    

 NO OUTPUT CONTROL FOR STRESS PERIOD    7   TIME STEP   71
RIV   no.    1 value from time series:   101.00     for time:  223.0     to  224.0    
RIV   no.    2 value from time series:   101.00     for time:  223.0     to  224.0    
RIV   no.    3 value from time series:   111.50     for time:  223.0     to  224.0    
RIV   no.    4 value from time series:   111.50     for time:  223.0     to  224.0    
RIV   no.    5 value from time series:   115.10     for time:  223.0     to  224.0    
RIV   no.    6 value from time series:   115.10     for time:  223.0     to  224.0    
RIV   no.    7 value from time series:   104.00     for time:  223.0     to  224.0    
RIV   no.    8 value from time series:   104.00     for time:  223.0     to  224.0    
RIV   no.    9 value from time series:   113.50     for time:  223.0     to  224.0    
RIV   no.   10 value from time series:   113.50     for time:  223.0     to  224.0    
RIV   no.    1 value from time series:   101.00     for time:  223.0     to  224.0    
RIV   no.    2 value from time series:   101.00     for time:  223.0     to  224.0    
RIV   no.    3 value from time series:   111.50     for time:  223.0     to  224.0    
RIV   no.    4 value from time series:   111.50     for time:  223.0     to  224.0    
RIV   no.    5 value from time series:   115.10     for time:  223.0     to  224.0    
RIV   no.    6 value from time series:   115.10     for time:  223.0     to  224.0    
RIV   no.    7 value from time series:   104.00     for time:  223.0     to  224.0    
RIV   no.    8 value from time series:   104.00     for time:  223.0     to  224.0    
RIV   no.    9 value from time series:   113.50     for time:  223.0     to  224.0    
RIV   no.   10 value from time series:   113.50     for time:  223.0     to  224.0    

 NO OUTPUT CONTROL FOR STRESS PERIOD    7   TIME STEP   72
RIV   no.    1 value from time series:   101.00     for time:  224.0     to  225.0    
RIV   no.    2 value from time series:   101.00     for time:  224.0     to  225.0    
RIV   no.    3 value from time series:   111.50     for time:  224.0     to  225.0    
RIV   no.    4 value from time series:   111.50     for time:  224.0     to  225.0    
RIV   no.    5 value from time series:   115.10     for time:  224.0     to  225.0    
RIV   no.    6 value from time series:   115.10     for time:  224.0     to  225.0    
RIV   no.    7 value from time series:   104.00     for time:  224.0     to  225.0    
RIV   no.    8 value from time series:   104.00     for time:  224.0     to  225.0    
RIV   no.    9 value from time series:   113.50     for time:  224.0     to  225.0    
RIV   no.   10 value from time series:   113.50     for time:  224.0     to  225.0    
RIV   no.    1 value from time series:   101.00     for time:  224.0     to  225.0    
RIV   no.    2 value from time series:   101.00     for time:  224.0     to  225.0    
RIV   no.    3 value from time series:   111.50     for time:  224.0     to  225.0    
RIV   no.    4 value from time series:   111.50     for time:  224.0     to  225.0    
RIV   no.    5 value from time series:   115.10     for time:  224.0     to  225.0    
RIV   no.    6 value from time series:   115.10     for time:  224.0     to  225.0    
RIV   no.    7 value from time series:   104.00     for time:  224.0     to  225.0    
RIV   no.    8 value from time series:   104.00     for time:  224.0     to  225.0    
RIV   no.    9 value from time series:   113.50     for time:  224.0     to  225.0    
RIV   no.   10 value from time series:   113.50     for time:  224.0     to  225.0    

 NO OUTPUT CONTROL FOR STRESS PERIOD    7   TIME STEP   73
RIV   no.    1 value from time series:   101.00     for time:  225.0     to  226.0    
RIV   no.    2 value from time series:   101.00     for time:  225.0     to  226.0    
RIV   no.    3 value from time series:   111.50     for time:  225.0     to  226.0    
RIV   no.    4 value from time series:   111.50     for time:  225.0     to  226.0    
RIV   no.    5 value from time series:   115.10     for time:  225.0     to  226.0    
RIV   no.    6 value from time series:   115.10     for time:  225.0     to  226.0    
RIV   no.    7 value from time series:   104.00     for time:  225.0     to  226.0    
RIV   no.    8 value from time series:   104.00     for time:  225.0     to  226.0    
RIV   no.    9 value from time series:   113.50     for time:  225.0     to  226.0    
RIV   no.   10 value from time series:   113.50     for time:  225.0     to  226.0    
RIV   no.    1 value from time series:   101.00     for time:  225.0     to  226.0    
RIV   no.    2 value from time series:   101.00     for time:  225.0     to  226.0    
RIV   no.    3 value from time series:   111.50     for time:  225.0     to  226.0    
RIV   no.    4 value from time series:   111.50     for time:  225.0     to  226.0    
RIV   no.    5 value from time series:   115.10     for time:  225.0     to  226.0    
RIV   no.    6 value from time series:   115.10     for time:  225.0     to  226.0    
RIV   no.    7 value from time series:   104.00     for time:  225.0     to  226.0    
RIV   no.    8 value from time series:   104.00     for time:  225.0     to  226.0    
RIV   no.    9 value from time series:   113.50     for time:  225.0     to  226.0    
RIV   no.   10 value from time series:   113.50     for time:  225.0     to  226.0    

 NO OUTPUT CONTROL FOR STRESS PERIOD    7   TIME STEP   74
RIV   no.    1 value from time series:   101.00     for time:  226.0     to  227.0    
RIV   no.    2 value from time series:   101.00     for time:  226.0     to  227.0    
RIV   no.    3 value from time series:   111.50     for time:  226.0     to  227.0    
RIV   no.    4 value from time series:   111.50     for time:  226.0     to  227.0    
RIV   no.    5 value from time series:   115.10     for time:  226.0     to  227.0    
RIV   no.    6 value from time series:   115.10     for time:  226.0     to  227.0    
RIV   no.    7 value from time series:   104.00     for time:  226.0     to  227.0    
RIV   no.    8 value from time series:   104.00     for time:  226.0     to  227.0    
RIV   no.    9 value from time series:   113.50     for time:  226.0     to  227.0    
RIV   no.   10 value from time series:   113.50     for time:  226.0     to  227.0    
RIV   no.    1 value from time series:   101.00     for time:  226.0     to  227.0    
RIV   no.    2 value from time series:   101.00     for time:  226.0     to  227.0    
RIV   no.    3 value from time series:   111.50     for time:  226.0     to  227.0    
RIV   no.    4 value from time series:   111.50     for time:  226.0     to  227.0    
RIV   no.    5 value from time series:   115.10     for time:  226.0     to  227.0    
RIV   no.    6 value from time series:   115.10     for time:  226.0     to  227.0    
RIV   no.    7 value from time series:   104.00     for time:  226.0     to  227.0    
RIV   no.    8 value from time series:   104.00     for time:  226.0     to  227.0    
RIV   no.    9 value from time series:   113.50     for time:  226.0     to  227.0    
RIV   no.   10 value from time series:   113.50     for time:  226.0     to  227.0    

 NO OUTPUT CONTROL FOR STRESS PERIOD    7   TIME STEP   75
RIV   no.    1 value from time series:   101.00     for time:  227.0     to  228.0    
RIV   no.    2 value from time series:   101.00     for time:  227.0     to  228.0    
RIV   no.    3 value from time series:   111.50     for time:  227.0     to  228.0    
RIV   no.    4 value from time series:   111.50     for time:  227.0     to  228.0    
RIV   no.    5 value from time series:   115.10     for time:  227.0     to  228.0    
RIV   no.    6 value from time series:   115.10     for time:  227.0     to  228.0    
RIV   no.    7 value from time series:   104.00     for time:  227.0     to  228.0    
RIV   no.    8 value from time series:   104.00     for time:  227.0     to  228.0    
RIV   no.    9 value from time series:   113.50     for time:  227.0     to  228.0    
RIV   no.   10 value from time series:   113.50     for time:  227.0     to  228.0    
RIV   no.    1 value from time series:   101.00     for time:  227.0     to  228.0    
RIV   no.    2 value from time series:   101.00     for time:  227.0     to  228.0    
RIV   no.    3 value from time series:   111.50     for time:  227.0     to  228.0    
RIV   no.    4 value from time series:   111.50     for time:  227.0     to  228.0    
RIV   no.    5 value from time series:   115.10     for time:  227.0     to  228.0    
RIV   no.    6 value from time series:   115.10     for time:  227.0     to  228.0    
RIV   no.    7 value from time series:   104.00     for time:  227.0     to  228.0    
RIV   no.    8 value from time series:   104.00     for time:  227.0     to  228.0    
RIV   no.    9 value from time series:   113.50     for time:  227.0     to  228.0    
RIV   no.   10 value from time series:   113.50     for time:  227.0     to  228.0    

 NO OUTPUT CONTROL FOR STRESS PERIOD    7   TIME STEP   76
RIV   no.    1 value from time series:   101.00     for time:  228.0     to  229.0    
RIV   no.    2 value from time series:   101.00     for time:  228.0     to  229.0    
RIV   no.    3 value from time series:   111.50     for time:  228.0     to  229.0    
RIV   no.    4 value from time series:   111.50     for time:  228.0     to  229.0    
RIV   no.    5 value from time series:   115.10     for time:  228.0     to  229.0    
RIV   no.    6 value from time series:   115.10     for time:  228.0     to  229.0    
RIV   no.    7 value from time series:   104.00     for time:  228.0     to  229.0    
RIV   no.    8 value from time series:   104.00     for time:  228.0     to  229.0    
RIV   no.    9 value from time series:   113.50     for time:  228.0     to  229.0    
RIV   no.   10 value from time series:   113.50     for time:  228.0     to  229.0    
RIV   no.    1 value from time series:   101.00     for time:  228.0     to  229.0    
RIV   no.    2 value from time series:   101.00     for time:  228.0     to  229.0    
RIV   no.    3 value from time series:   111.50     for time:  228.0     to  229.0    
RIV   no.    4 value from time series:   111.50     for time:  228.0     to  229.0    
RIV   no.    5 value from time series:   115.10     for time:  228.0     to  229.0    
RIV   no.    6 value from time series:   115.10     for time:  228.0     to  229.0    
RIV   no.    7 value from time series:   104.00     for time:  228.0     to  229.0    
RIV   no.    8 value from time series:   104.00     for time:  228.0     to  229.0    
RIV   no.    9 value from time series:   113.50     for time:  228.0     to  229.0    
RIV   no.   10 value from time series:   113.50     for time:  228.0     to  229.0    

 NO OUTPUT CONTROL FOR STRESS PERIOD    7   TIME STEP   77
RIV   no.    1 value from time series:   101.00     for time:  229.0     to  230.0    
RIV   no.    2 value from time series:   101.00     for time:  229.0     to  230.0    
RIV   no.    3 value from time series:   111.50     for time:  229.0     to  230.0    
RIV   no.    4 value from time series:   111.50     for time:  229.0     to  230.0    
RIV   no.    5 value from time series:   115.10     for time:  229.0     to  230.0    
RIV   no.    6 value from time series:   115.10     for time:  229.0     to  230.0    
RIV   no.    7 value from time series:   104.00     for time:  229.0     to  230.0    
RIV   no.    8 value from time series:   104.00     for time:  229.0     to  230.0    
RIV   no.    9 value from time series:   113.50     for time:  229.0     to  230.0    
RIV   no.   10 value from time series:   113.50     for time:  229.0     to  230.0    
RIV   no.    1 value from time series:   101.00     for time:  229.0     to  230.0    
RIV   no.    2 value from time series:   101.00     for time:  229.0     to  230.0    
RIV   no.    3 value from time series:   111.50     for time:  229.0     to  230.0    
RIV   no.    4 value from time series:   111.50     for time:  229.0     to  230.0    
RIV   no.    5 value from time series:   115.10     for time:  229.0     to  230.0    
RIV   no.    6 value from time series:   115.10     for time:  229.0     to  230.0    
RIV   no.    7 value from time series:   104.00     for time:  229.0     to  230.0    
RIV   no.    8 value from time series:   104.00     for time:  229.0     to  230.0    
RIV   no.    9 value from time series:   113.50     for time:  229.0     to  230.0    
RIV   no.   10 value from time series:   113.50     for time:  229.0     to  230.0    

 NO OUTPUT CONTROL FOR STRESS PERIOD    7   TIME STEP   78
RIV   no.    1 value from time series:   101.00     for time:  230.0     to  231.0    
RIV   no.    2 value from time series:   101.00     for time:  230.0     to  231.0    
RIV   no.    3 value from time series:   111.50     for time:  230.0     to  231.0    
RIV   no.    4 value from time series:   111.50     for time:  230.0     to  231.0    
RIV   no.    5 value from time series:   115.10     for time:  230.0     to  231.0    
RIV   no.    6 value from time series:   115.10     for time:  230.0     to  231.0    
RIV   no.    7 value from time series:   104.00     for time:  230.0     to  231.0    
RIV   no.    8 value from time series:   104.00     for time:  230.0     to  231.0    
RIV   no.    9 value from time series:   113.50     for time:  230.0     to  231.0    
RIV   no.   10 value from time series:   113.50     for time:  230.0     to  231.0    
RIV   no.    1 value from time series:   101.00     for time:  230.0     to  231.0    
RIV   no.    2 value from time series:   101.00     for time:  230.0     to  231.0    
RIV   no.    3 value from time series:   111.50     for time:  230.0     to  231.0    
RIV   no.    4 value from time series:   111.50     for time:  230.0     to  231.0    
RIV   no.    5 value from time series:   115.10     for time:  230.0     to  231.0    
RIV   no.    6 value from time series:   115.10     for time:  230.0     to  231.0    
RIV   no.    7 value from time series:   104.00     for time:  230.0     to  231.0    
RIV   no.    8 value from time series:   104.00     for time:  230.0     to  231.0    
RIV   no.    9 value from time series:   113.50     for time:  230.0     to  231.0    
RIV   no.   10 value from time series:   113.50     for time:  230.0     to  231.0    

 NO OUTPUT CONTROL FOR STRESS PERIOD    7   TIME STEP   79
RIV   no.    1 value from time series:   101.00     for time:  231.0     to  232.0    
RIV   no.    2 value from time series:   101.00     for time:  231.0     to  232.0    
RIV   no.    3 value from time series:   111.50     for time:  231.0     to  232.0    
RIV   no.    4 value from time series:   111.50     for time:  231.0     to  232.0    
RIV   no.    5 value from time series:   115.10     for time:  231.0     to  232.0    
RIV   no.    6 value from time series:   115.10     for time:  231.0     to  232.0    
RIV   no.    7 value from time series:   104.00     for time:  231.0     to  232.0    
RIV   no.    8 value from time series:   104.00     for time:  231.0     to  232.0    
RIV   no.    9 value from time series:   113.50     for time:  231.0     to  232.0    
RIV   no.   10 value from time series:   113.50     for time:  231.0     to  232.0    
RIV   no.    1 value from time series:   101.00     for time:  231.0     to  232.0    
RIV   no.    2 value from time series:   101.00     for time:  231.0     to  232.0    
RIV   no.    3 value from time series:   111.50     for time:  231.0     to  232.0    
RIV   no.    4 value from time series:   111.50     for time:  231.0     to  232.0    
RIV   no.    5 value from time series:   115.10     for time:  231.0     to  232.0    
RIV   no.    6 value from time series:   115.10     for time:  231.0     to  232.0    
RIV   no.    7 value from time series:   104.00     for time:  231.0     to  232.0    
RIV   no.    8 value from time series:   104.00     for time:  231.0     to  232.0    
RIV   no.    9 value from time series:   113.50     for time:  231.0     to  232.0    
RIV   no.   10 value from time series:   113.50     for time:  231.0     to  232.0    

 NO OUTPUT CONTROL FOR STRESS PERIOD    7   TIME STEP   80
RIV   no.    1 value from time series:   101.00     for time:  232.0     to  233.0    
RIV   no.    2 value from time series:   101.00     for time:  232.0     to  233.0    
RIV   no.    3 value from time series:   111.50     for time:  232.0     to  233.0    
RIV   no.    4 value from time series:   111.50     for time:  232.0     to  233.0    
RIV   no.    5 value from time series:   115.10     for time:  232.0     to  233.0    
RIV   no.    6 value from time series:   115.10     for time:  232.0     to  233.0    
RIV   no.    7 value from time series:   104.00     for time:  232.0     to  233.0    
RIV   no.    8 value from time series:   104.00     for time:  232.0     to  233.0    
RIV   no.    9 value from time series:   113.50     for time:  232.0     to  233.0    
RIV   no.   10 value from time series:   113.50     for time:  232.0     to  233.0    
RIV   no.    1 value from time series:   101.00     for time:  232.0     to  233.0    
RIV   no.    2 value from time series:   101.00     for time:  232.0     to  233.0    
RIV   no.    3 value from time series:   111.50     for time:  232.0     to  233.0    
RIV   no.    4 value from time series:   111.50     for time:  232.0     to  233.0    
RIV   no.    5 value from time series:   115.10     for time:  232.0     to  233.0    
RIV   no.    6 value from time series:   115.10     for time:  232.0     to  233.0    
RIV   no.    7 value from time series:   104.00     for time:  232.0     to  233.0    
RIV   no.    8 value from time series:   104.00     for time:  232.0     to  233.0    
RIV   no.    9 value from time series:   113.50     for time:  232.0     to  233.0    
RIV   no.   10 value from time series:   113.50     for time:  232.0     to  233.0    

 NO OUTPUT CONTROL FOR STRESS PERIOD    7   TIME STEP   81
RIV   no.    1 value from time series:   101.00     for time:  233.0     to  234.0    
RIV   no.    2 value from time series:   101.00     for time:  233.0     to  234.0    
RIV   no.    3 value from time series:   111.50     for time:  233.0     to  234.0    
RIV   no.    4 value from time series:   111.50     for time:  233.0     to  234.0    
RIV   no.    5 value from time series:   115.10     for time:  233.0     to  234.0    
RIV   no.    6 value from time series:   115.10     for time:  233.0     to  234.0    
RIV   no.    7 value from time series:   104.00     for time:  233.0     to  234.0    
RIV   no.    8 value from time series:   104.00     for time:  233.0     to  234.0    
RIV   no.    9 value from time series:   113.50     for time:  233.0     to  234.0    
RIV   no.   10 value from time series:   113.50     for time:  233.0     to  234.0    
RIV   no.    1 value from time series:   101.00     for time:  233.0     to  234.0    
RIV   no.    2 value from time series:   101.00     for time:  233.0     to  234.0    
RIV   no.    3 value from time series:   111.50     for time:  233.0     to  234.0    
RIV   no.    4 value from time series:   111.50     for time:  233.0     to  234.0    
RIV   no.    5 value from time series:   115.10     for time:  233.0     to  234.0    
RIV   no.    6 value from time series:   115.10     for time:  233.0     to  234.0    
RIV   no.    7 value from time series:   104.00     for time:  233.0     to  234.0    
RIV   no.    8 value from time series:   104.00     for time:  233.0     to  234.0    
RIV   no.    9 value from time series:   113.50     for time:  233.0     to  234.0    
RIV   no.   10 value from time series:   113.50     for time:  233.0     to  234.0    

 NO OUTPUT CONTROL FOR STRESS PERIOD    7   TIME STEP   82
RIV   no.    1 value from time series:   101.00     for time:  234.0     to  235.0    
RIV   no.    2 value from time series:   101.00     for time:  234.0     to  235.0    
RIV   no.    3 value from time series:   111.50     for time:  234.0     to  235.0    
RIV   no.    4 value from time series:   111.50     for time:  234.0     to  235.0    
RIV   no.    5 value from time series:   115.10     for time:  234.0     to  235.0    
RIV   no.    6 value from time series:   115.10     for time:  234.0     to  235.0    
RIV   no.    7 value from time series:   104.00     for time:  234.0     to  235.0    
RIV   no.    8 value from time series:   104.00     for time:  234.0     to  235.0    
RIV   no.    9 value from time series:   113.50     for time:  234.0     to  235.0    
RIV   no.   10 value from time series:   113.50     for time:  234.0     to  235.0    
RIV   no.    1 value from time series:   101.00     for time:  234.0     to  235.0    
RIV   no.    2 value from time series:   101.00     for time:  234.0     to  235.0    
RIV   no.    3 value from time series:   111.50     for time:  234.0     to  235.0    
RIV   no.    4 value from time series:   111.50     for time:  234.0     to  235.0    
RIV   no.    5 value from time series:   115.10     for time:  234.0     to  235.0    
RIV   no.    6 value from time series:   115.10     for time:  234.0     to  235.0    
RIV   no.    7 value from time series:   104.00     for time:  234.0     to  235.0    
RIV   no.    8 value from time series:   104.00     for time:  234.0     to  235.0    
RIV   no.    9 value from time series:   113.50     for time:  234.0     to  235.0    
RIV   no.   10 value from time series:   113.50     for time:  234.0     to  235.0    

 NO OUTPUT CONTROL FOR STRESS PERIOD    7   TIME STEP   83
RIV   no.    1 value from time series:   101.00     for time:  235.0     to  236.0    
RIV   no.    2 value from time series:   101.00     for time:  235.0     to  236.0    
RIV   no.    3 value from time series:   111.50     for time:  235.0     to  236.0    
RIV   no.    4 value from time series:   111.50     for time:  235.0     to  236.0    
RIV   no.    5 value from time series:   115.10     for time:  235.0     to  236.0    
RIV   no.    6 value from time series:   115.10     for time:  235.0     to  236.0    
RIV   no.    7 value from time series:   104.00     for time:  235.0     to  236.0    
RIV   no.    8 value from time series:   104.00     for time:  235.0     to  236.0    
RIV   no.    9 value from time series:   113.50     for time:  235.0     to  236.0    
RIV   no.   10 value from time series:   113.50     for time:  235.0     to  236.0    
RIV   no.    1 value from time series:   101.00     for time:  235.0     to  236.0    
RIV   no.    2 value from time series:   101.00     for time:  235.0     to  236.0    
RIV   no.    3 value from time series:   111.50     for time:  235.0     to  236.0    
RIV   no.    4 value from time series:   111.50     for time:  235.0     to  236.0    
RIV   no.    5 value from time series:   115.10     for time:  235.0     to  236.0    
RIV   no.    6 value from time series:   115.10     for time:  235.0     to  236.0    
RIV   no.    7 value from time series:   104.00     for time:  235.0     to  236.0    
RIV   no.    8 value from time series:   104.00     for time:  235.0     to  236.0    
RIV   no.    9 value from time series:   113.50     for time:  235.0     to  236.0    
RIV   no.   10 value from time series:   113.50     for time:  235.0     to  236.0    

 NO OUTPUT CONTROL FOR STRESS PERIOD    7   TIME STEP   84
RIV   no.    1 value from time series:   101.00     for time:  236.0     to  237.0    
RIV   no.    2 value from time series:   101.00     for time:  236.0     to  237.0    
RIV   no.    3 value from time series:   111.50     for time:  236.0     to  237.0    
RIV   no.    4 value from time series:   111.50     for time:  236.0     to  237.0    
RIV   no.    5 value from time series:   115.10     for time:  236.0     to  237.0    
RIV   no.    6 value from time series:   115.10     for time:  236.0     to  237.0    
RIV   no.    7 value from time series:   104.00     for time:  236.0     to  237.0    
RIV   no.    8 value from time series:   104.00     for time:  236.0     to  237.0    
RIV   no.    9 value from time series:   113.50     for time:  236.0     to  237.0    
RIV   no.   10 value from time series:   113.50     for time:  236.0     to  237.0    
RIV   no.    1 value from time series:   101.00     for time:  236.0     to  237.0    
RIV   no.    2 value from time series:   101.00     for time:  236.0     to  237.0    
RIV   no.    3 value from time series:   111.50     for time:  236.0     to  237.0    
RIV   no.    4 value from time series:   111.50     for time:  236.0     to  237.0    
RIV   no.    5 value from time series:   115.10     for time:  236.0     to  237.0    
RIV   no.    6 value from time series:   115.10     for time:  236.0     to  237.0    
RIV   no.    7 value from time series:   104.00     for time:  236.0     to  237.0    
RIV   no.    8 value from time series:   104.00     for time:  236.0     to  237.0    
RIV   no.    9 value from time series:   113.50     for time:  236.0     to  237.0    
RIV   no.   10 value from time series:   113.50     for time:  236.0     to  237.0    

 NO OUTPUT CONTROL FOR STRESS PERIOD    7   TIME STEP   85
RIV   no.    1 value from time series:   101.00     for time:  237.0     to  238.0    
RIV   no.    2 value from time series:   101.00     for time:  237.0     to  238.0    
RIV   no.    3 value from time series:   111.50     for time:  237.0     to  238.0    
RIV   no.    4 value from time series:   111.50     for time:  237.0     to  238.0    
RIV   no.    5 value from time series:   115.10     for time:  237.0     to  238.0    
RIV   no.    6 value from time series:   115.10     for time:  237.0     to  238.0    
RIV   no.    7 value from time series:   104.00     for time:  237.0     to  238.0    
RIV   no.    8 value from time series:   104.00     for time:  237.0     to  238.0    
RIV   no.    9 value from time series:   113.50     for time:  237.0     to  238.0    
RIV   no.   10 value from time series:   113.50     for time:  237.0     to  238.0    
RIV   no.    1 value from time series:   101.00     for time:  237.0     to  238.0    
RIV   no.    2 value from time series:   101.00     for time:  237.0     to  238.0    
RIV   no.    3 value from time series:   111.50     for time:  237.0     to  238.0    
RIV   no.    4 value from time series:   111.50     for time:  237.0     to  238.0    
RIV   no.    5 value from time series:   115.10     for time:  237.0     to  238.0    
RIV   no.    6 value from time series:   115.10     for time:  237.0     to  238.0    
RIV   no.    7 value from time series:   104.00     for time:  237.0     to  238.0    
RIV   no.    8 value from time series:   104.00     for time:  237.0     to  238.0    
RIV   no.    9 value from time series:   113.50     for time:  237.0     to  238.0    
RIV   no.   10 value from time series:   113.50     for time:  237.0     to  238.0    

 NO OUTPUT CONTROL FOR STRESS PERIOD    7   TIME STEP   86
RIV   no.    1 value from time series:   101.00     for time:  238.0     to  239.0    
RIV   no.    2 value from time series:   101.00     for time:  238.0     to  239.0    
RIV   no.    3 value from time series:   111.50     for time:  238.0     to  239.0    
RIV   no.    4 value from time series:   111.50     for time:  238.0     to  239.0    
RIV   no.    5 value from time series:   115.10     for time:  238.0     to  239.0    
RIV   no.    6 value from time series:   115.10     for time:  238.0     to  239.0    
RIV   no.    7 value from time series:   104.00     for time:  238.0     to  239.0    
RIV   no.    8 value from time series:   104.00     for time:  238.0     to  239.0    
RIV   no.    9 value from time series:   113.50     for time:  238.0     to  239.0    
RIV   no.   10 value from time series:   113.50     for time:  238.0     to  239.0    
RIV   no.    1 value from time series:   101.00     for time:  238.0     to  239.0    
RIV   no.    2 value from time series:   101.00     for time:  238.0     to  239.0    
RIV   no.    3 value from time series:   111.50     for time:  238.0     to  239.0    
RIV   no.    4 value from time series:   111.50     for time:  238.0     to  239.0    
RIV   no.    5 value from time series:   115.10     for time:  238.0     to  239.0    
RIV   no.    6 value from time series:   115.10     for time:  238.0     to  239.0    
RIV   no.    7 value from time series:   104.00     for time:  238.0     to  239.0    
RIV   no.    8 value from time series:   104.00     for time:  238.0     to  239.0    
RIV   no.    9 value from time series:   113.50     for time:  238.0     to  239.0    
RIV   no.   10 value from time series:   113.50     for time:  238.0     to  239.0    

 NO OUTPUT CONTROL FOR STRESS PERIOD    7   TIME STEP   87
RIV   no.    1 value from time series:   101.00     for time:  239.0     to  240.0    
RIV   no.    2 value from time series:   101.00     for time:  239.0     to  240.0    
RIV   no.    3 value from time series:   111.50     for time:  239.0     to  240.0    
RIV   no.    4 value from time series:   111.50     for time:  239.0     to  240.0    
RIV   no.    5 value from time series:   115.10     for time:  239.0     to  240.0    
RIV   no.    6 value from time series:   115.10     for time:  239.0     to  240.0    
RIV   no.    7 value from time series:   104.00     for time:  239.0     to  240.0    
RIV   no.    8 value from time series:   104.00     for time:  239.0     to  240.0    
RIV   no.    9 value from time series:   113.50     for time:  239.0     to  240.0    
RIV   no.   10 value from time series:   113.50     for time:  239.0     to  240.0    
RIV   no.    1 value from time series:   101.00     for time:  239.0     to  240.0    
RIV   no.    2 value from time series:   101.00     for time:  239.0     to  240.0    
RIV   no.    3 value from time series:   111.50     for time:  239.0     to  240.0    
RIV   no.    4 value from time series:   111.50     for time:  239.0     to  240.0    
RIV   no.    5 value from time series:   115.10     for time:  239.0     to  240.0    
RIV   no.    6 value from time series:   115.10     for time:  239.0     to  240.0    
RIV   no.    7 value from time series:   104.00     for time:  239.0     to  240.0    
RIV   no.    8 value from time series:   104.00     for time:  239.0     to  240.0    
RIV   no.    9 value from time series:   113.50     for time:  239.0     to  240.0    
RIV   no.   10 value from time series:   113.50     for time:  239.0     to  240.0    

 NO OUTPUT CONTROL FOR STRESS PERIOD    7   TIME STEP   88
RIV   no.    1 value from time series:   101.00     for time:  240.0     to  241.0    
RIV   no.    2 value from time series:   101.00     for time:  240.0     to  241.0    
RIV   no.    3 value from time series:   111.50     for time:  240.0     to  241.0    
RIV   no.    4 value from time series:   111.50     for time:  240.0     to  241.0    
RIV   no.    5 value from time series:   115.10     for time:  240.0     to  241.0    
RIV   no.    6 value from time series:   115.10     for time:  240.0     to  241.0    
RIV   no.    7 value from time series:   104.00     for time:  240.0     to  241.0    
RIV   no.    8 value from time series:   104.00     for time:  240.0     to  241.0    
RIV   no.    9 value from time series:   113.50     for time:  240.0     to  241.0    
RIV   no.   10 value from time series:   113.50     for time:  240.0     to  241.0    

 RchArraySeries           =  2.500000E-03 FOR LAYER   1

 EtsArraySeries           =  3.400000E-04 FOR LAYER   1
RIV   no.    1 value from time series:   101.00     for time:  240.0     to  241.0    
RIV   no.    2 value from time series:   101.00     for time:  240.0     to  241.0    
RIV   no.    3 value from time series:   111.50     for time:  240.0     to  241.0    
RIV   no.    4 value from time series:   111.50     for time:  240.0     to  241.0    
RIV   no.    5 value from time series:   115.10     for time:  240.0     to  241.0    
RIV   no.    6 value from time series:   115.10     for time:  240.0     to  241.0    
RIV   no.    7 value from time series:   104.00     for time:  240.0     to  241.0    
RIV   no.    8 value from time series:   104.00     for time:  240.0     to  241.0    
RIV   no.    9 value from time series:   113.50     for time:  240.0     to  241.0    
RIV   no.   10 value from time series:   113.50     for time:  240.0     to  241.0    

 NO OUTPUT CONTROL FOR STRESS PERIOD    7   TIME STEP   89
RIV   no.    1 value from time series:   101.00     for time:  241.0     to  242.0    
RIV   no.    2 value from time series:   101.00     for time:  241.0     to  242.0    
RIV   no.    3 value from time series:   111.50     for time:  241.0     to  242.0    
RIV   no.    4 value from time series:   111.50     for time:  241.0     to  242.0    
RIV   no.    5 value from time series:   115.10     for time:  241.0     to  242.0    
RIV   no.    6 value from time series:   115.10     for time:  241.0     to  242.0    
RIV   no.    7 value from time series:   104.00     for time:  241.0     to  242.0    
RIV   no.    8 value from time series:   104.00     for time:  241.0     to  242.0    
RIV   no.    9 value from time series:   113.50     for time:  241.0     to  242.0    
RIV   no.   10 value from time series:   113.50     for time:  241.0     to  242.0    
RIV   no.    1 value from time series:   101.00     for time:  241.0     to  242.0    
RIV   no.    2 value from time series:   101.00     for time:  241.0     to  242.0    
RIV   no.    3 value from time series:   111.50     for time:  241.0     to  242.0    
RIV   no.    4 value from time series:   111.50     for time:  241.0     to  242.0    
RIV   no.    5 value from time series:   115.10     for time:  241.0     to  242.0    
RIV   no.    6 value from time series:   115.10     for time:  241.0     to  242.0    
RIV   no.    7 value from time series:   104.00     for time:  241.0     to  242.0    
RIV   no.    8 value from time series:   104.00     for time:  241.0     to  242.0    
RIV   no.    9 value from time series:   113.50     for time:  241.0     to  242.0    
RIV   no.   10 value from time series:   113.50     for time:  241.0     to  242.0    

 NO OUTPUT CONTROL FOR STRESS PERIOD    7   TIME STEP   90
RIV   no.    1 value from time series:   101.00     for time:  242.0     to  243.0    
RIV   no.    2 value from time series:   101.00     for time:  242.0     to  243.0    
RIV   no.    3 value from time series:   111.50     for time:  242.0     to  243.0    
RIV   no.    4 value from time series:   111.50     for time:  242.0     to  243.0    
RIV   no.    5 value from time series:   115.10     for time:  242.0     to  243.0    
RIV   no.    6 value from time series:   115.10     for time:  242.0     to  243.0    
RIV   no.    7 value from time series:   104.00     for time:  242.0     to  243.0    
RIV   no.    8 value from time series:   104.00     for time:  242.0     to  243.0    
RIV   no.    9 value from time series:   113.50     for time:  242.0     to  243.0    
RIV   no.   10 value from time series:   113.50     for time:  242.0     to  243.0    
RIV   no.    1 value from time series:   101.00     for time:  242.0     to  243.0    
RIV   no.    2 value from time series:   101.00     for time:  242.0     to  243.0    
RIV   no.    3 value from time series:   111.50     for time:  242.0     to  243.0    
RIV   no.    4 value from time series:   111.50     for time:  242.0     to  243.0    
RIV   no.    5 value from time series:   115.10     for time:  242.0     to  243.0    
RIV   no.    6 value from time series:   115.10     for time:  242.0     to  243.0    
RIV   no.    7 value from time series:   104.00     for time:  242.0     to  243.0    
RIV   no.    8 value from time series:   104.00     for time:  242.0     to  243.0    
RIV   no.    9 value from time series:   113.50     for time:  242.0     to  243.0    
RIV   no.   10 value from time series:   113.50     for time:  242.0     to  243.0    

 NO OUTPUT CONTROL FOR STRESS PERIOD    7   TIME STEP   91
RIV   no.    1 value from time series:   101.00     for time:  243.0     to  244.0    
RIV   no.    2 value from time series:   101.00     for time:  243.0     to  244.0    
RIV   no.    3 value from time series:   111.50     for time:  243.0     to  244.0    
RIV   no.    4 value from time series:   111.50     for time:  243.0     to  244.0    
RIV   no.    5 value from time series:   115.10     for time:  243.0     to  244.0    
RIV   no.    6 value from time series:   115.10     for time:  243.0     to  244.0    
RIV   no.    7 value from time series:   104.00     for time:  243.0     to  244.0    
RIV   no.    8 value from time series:   104.00     for time:  243.0     to  244.0    
RIV   no.    9 value from time series:   113.50     for time:  243.0     to  244.0    
RIV   no.   10 value from time series:   113.50     for time:  243.0     to  244.0    
RIV   no.    1 value from time series:   101.00     for time:  243.0     to  244.0    
RIV   no.    2 value from time series:   101.00     for time:  243.0     to  244.0    
RIV   no.    3 value from time series:   111.50     for time:  243.0     to  244.0    
RIV   no.    4 value from time series:   111.50     for time:  243.0     to  244.0    
RIV   no.    5 value from time series:   115.10     for time:  243.0     to  244.0    
RIV   no.    6 value from time series:   115.10     for time:  243.0     to  244.0    
RIV   no.    7 value from time series:   104.00     for time:  243.0     to  244.0    
RIV   no.    8 value from time series:   104.00     for time:  243.0     to  244.0    
RIV   no.    9 value from time series:   113.50     for time:  243.0     to  244.0    
RIV   no.   10 value from time series:   113.50     for time:  243.0     to  244.0    

 OUTPUT CONTROL FOR STRESS PERIOD    7   TIME STEP   92
    PRINT BUDGET
    PRINT HEAD
    PRINT HEAD FOR ALL LAYERS
    SAVE BUDGET
    SAVE HEAD
    SAVE HEAD FOR ALL LAYERS
 UBDSV1 SAVING          STORAGE ON UNIT   1016 AT TIME STEP     92, STRESS PERIOD      7
 UBDSV1 SAVING FLOW RIGHT FACE  ON UNIT   1016 AT TIME STEP     92, STRESS PERIOD      7
 UBDSV1 SAVING FLOW FRONT FACE  ON UNIT   1016 AT TIME STEP     92, STRESS PERIOD      7
 UBDSV1 SAVING FLOW LOWER FACE  ON UNIT   1016 AT TIME STEP     92, STRESS PERIOD      7
 UBDSV4 SAVING WELLS NEAR RIVER ON UNIT   1016 AT TIME STEP     92, STRESS PERIOD      7
 UBDSV4 SAVING RIVER            ON UNIT   1016 AT TIME STEP     92, STRESS PERIOD      7

 RIVER              PERIOD  7   STEP 92
 BOUNDARY      1   LAYER   1   ROW     1   COL    15   RATE    -5293.77    
 BOUNDARY      2   LAYER   1   ROW     2   COL    15   RATE    -6424.07      RIV2
 BOUNDARY      3   LAYER   1   ROW     3   COL    15   RATE    -2680.88      RIV3
 BOUNDARY      4   LAYER   1   ROW     4   COL    15   RATE    -4148.70    
 BOUNDARY      5   LAYER   1   ROW     5   COL    15   RATE    -2781.14    
 BOUNDARY      6   LAYER   1   ROW     6   COL    15   RATE    -2126.80    
 BOUNDARY      7   LAYER   1   ROW     7   COL    15   RATE    -6626.55      RIVX
 BOUNDARY      8   LAYER   1   ROW     8   COL    15   RATE    -6480.20      RIVX
 BOUNDARY      9   LAYER   1   ROW     9   COL    15   RATE    -2683.20      RIVX
 BOUNDARY     10   LAYER   1   ROW    10   COL    15   RATE    -3594.44    

 GHB LAKES          PERIOD  7   STEP 92
 BOUNDARY      1   LAYER   1   ROW     3   COL     1   RATE    -15724.3    
 BOUNDARY      2   LAYER   1   ROW     7   COL     1   RATE    -2813.05      GHB2_UPPER
 BOUNDARY      3   LAYER   1   ROW     7   COL     1   RATE    -13583.5      GHB2_LOWER
 UBDSV4 SAVING RECHARGE         ON UNIT   1016 AT TIME STEP     92, STRESS PERIOD      7

 RECHARGE           PERIOD  7   STEP 92
 BOUNDARY      1   LAYER   1   ROW     1   COL     1   RATE     742.708    
 BOUNDARY      2   LAYER   1   ROW     1   COL     2   RATE     742.708    
 BOUNDARY      3   LAYER   1   ROW     1   COL     3   RATE     742.708    
 BOUNDARY      4   LAYER   1   ROW     1   COL     4   RATE     742.708    
 BOUNDARY      5   LAYER   1   ROW     1   COL     5   RATE     742.708    
 BOUNDARY      6   LAYER   1   ROW     1   COL     6   RATE     742.708    
 BOUNDARY      7   LAYER   1   ROW     1   COL     7   RATE     742.708    
 BOUNDARY      8   LAYER   1   ROW     1   COL     8   RATE     742.708    
 BOUNDARY      9   LAYER   1   ROW     1   COL     9   RATE     742.708    
 BOUNDARY     10   LAYER   1   ROW     1   COL    10   RATE     742.708    
 BOUNDARY     11   LAYER   1   ROW     1   COL    11   RATE     742.708    
 BOUNDARY     12   LAYER   1   ROW     1   COL    12   RATE     742.708    
 BOUNDARY     13   LAYER   1   ROW     1   COL    13   RATE     742.708    
 BOUNDARY     14   LAYER   1   ROW     1   COL    14   RATE     742.708    
 BOUNDARY     15   LAYER   1   ROW     1   COL    15   RATE     742.708    
 BOUNDARY     16   LAYER   1   ROW     2   COL     1   RATE     742.708    
 BOUNDARY     17   LAYER   1   ROW     2   COL     2   RATE     742.708    
 BOUNDARY     18   LAYER   1   ROW     2   COL     3   RATE     742.708    
 BOUNDARY     19   LAYER   1   ROW     2   COL     4   RATE     742.708    
 BOUNDARY     20   LAYER   1   ROW     2   COL     5   RATE     742.708    
 BOUNDARY     21   LAYER   1   ROW     2   COL     6   RATE     742.708    
 BOUNDARY     22   LAYER   1   ROW     2   COL     7   RATE     742.708    
 BOUNDARY     23   LAYER   1   ROW     2   COL     8   RATE     742.708    
 BOUNDARY     24   LAYER   1   ROW     2   COL     9   RATE     742.708    
 BOUNDARY     25   LAYER   1   ROW     2   COL    10   RATE     742.708    
 BOUNDARY     26   LAYER   1   ROW     2   COL    11   RATE     742.708    
 BOUNDARY     27   LAYER   1   ROW     2   COL    12   RATE     742.708    
 BOUNDARY     28   LAYER   1   ROW     2   COL    13   RATE     742.708    
 BOUNDARY     29   LAYER   1   ROW     2   COL    14   RATE     742.708    
 BOUNDARY     30   LAYER   1   ROW     2   COL    15   RATE     742.708    
 BOUNDARY     31   LAYER   1   ROW     3   COL     1   RATE     742.708    
 BOUNDARY     32   LAYER   1   ROW     3   COL     2   RATE     742.708    
 BOUNDARY     33   LAYER   1   ROW     3   COL     3   RATE     742.708    
 BOUNDARY     34   LAYER   1   ROW     3   COL     4   RATE     742.708    
 BOUNDARY     35   LAYER   1   ROW     3   COL     5   RATE     742.708    
 BOUNDARY     36   LAYER   1   ROW     3   COL     6   RATE     742.708    
 BOUNDARY     37   LAYER   1   ROW     3   COL     7   RATE     742.708    
 BOUNDARY     38   LAYER   1   ROW     3   COL     8   RATE     742.708    
 BOUNDARY     39   LAYER   1   ROW     3   COL     9   RATE     742.708    
 BOUNDARY     40   LAYER   1   ROW     3   COL    10   RATE     742.708    
 BOUNDARY     41   LAYER   1   ROW     3   COL    11   RATE     742.708    
 BOUNDARY     42   LAYER   1   ROW     3   COL    12   RATE     742.708    
 BOUNDARY     43   LAYER   1   ROW     3   COL    13   RATE     742.708    
 BOUNDARY     44   LAYER   1   ROW     3   COL    14   RATE     742.708    
 BOUNDARY     45   LAYER   1   ROW     3   COL    15   RATE     742.708    
 BOUNDARY     46   LAYER   1   ROW     4   COL     1   RATE     742.708    
 BOUNDARY     47   LAYER   1   ROW     4   COL     2   RATE     742.708    
 BOUNDARY     48   LAYER   1   ROW     4   COL     3   RATE     742.708    
 BOUNDARY     49   LAYER   1   ROW     4   COL     4   RATE     742.708    
 BOUNDARY     50   LAYER   1   ROW     4   COL     5   RATE     742.708    
 BOUNDARY     51   LAYER   1   ROW     4   COL     6   RATE     742.708    
 BOUNDARY     52   LAYER   1   ROW     4   COL     7   RATE     742.708    
 BOUNDARY     53   LAYER   1   ROW     4   COL     8   RATE     742.708    
 BOUNDARY     54   LAYER   1   ROW     4   COL     9   RATE     742.708    
 BOUNDARY     55   LAYER   1   ROW     4   COL    10   RATE     742.708    
 BOUNDARY     56   LAYER   1   ROW     4   COL    11   RATE     742.708    
 BOUNDARY     57   LAYER   1   ROW     4   COL    12   RATE     742.708    
 BOUNDARY     58   LAYER   1   ROW     4   COL    13   RATE     742.708    
 BOUNDARY     59   LAYER   1   ROW     4   COL    14   RATE     742.708    
 BOUNDARY     60   LAYER   1   ROW     4   COL    15   RATE     742.708    
 BOUNDARY     61   LAYER   1   ROW     5   COL     1   RATE     742.708    
 BOUNDARY     62   LAYER   1   ROW     5   COL     2   RATE     742.708    
 BOUNDARY     63   LAYER   1   ROW     5   COL     3   RATE     742.708    
 BOUNDARY     64   LAYER   1   ROW     5   COL     4   RATE     742.708    
 BOUNDARY     65   LAYER   1   ROW     5   COL     5   RATE     742.708    
 BOUNDARY     66   LAYER   1   ROW     5   COL     6   RATE     742.708    
 BOUNDARY     67   LAYER   1   ROW     5   COL     7   RATE     742.708    
 BOUNDARY     68   LAYER   1   ROW     5   COL     8   RATE     742.708    
 BOUNDARY     69   LAYER   1   ROW     5   COL     9   RATE     742.708    
 BOUNDARY     70   LAYER   1   ROW     5   COL    10   RATE     742.708    
 BOUNDARY     71   LAYER   1   ROW     5   COL    11   RATE     742.708    
 BOUNDARY     72   LAYER   1   ROW     5   COL    12   RATE     742.708    
 BOUNDARY     73   LAYER   1   ROW     5   COL    13   RATE     742.708    
 BOUNDARY     74   LAYER   1   ROW     5   COL    14   RATE     742.708    
 BOUNDARY     75   LAYER   1   ROW     5   COL    15   RATE     742.708    
 BOUNDARY     76   LAYER   1   ROW     6   COL     1   RATE     742.708    
 BOUNDARY     77   LAYER   1   ROW     6   COL     2   RATE     742.708    
 BOUNDARY     78   LAYER   1   ROW     6   COL     3   RATE     742.708    
 BOUNDARY     79   LAYER   1   ROW     6   COL     4   RATE     742.708    
 BOUNDARY     80   LAYER   1   ROW     6   COL     5   RATE     742.708    
 BOUNDARY     81   LAYER   1   ROW     6   COL     6   RATE     742.708    
 BOUNDARY     82   LAYER   1   ROW     6   COL     7   RATE     742.708    
 BOUNDARY     83   LAYER   1   ROW     6   COL     8   RATE     742.708    
 BOUNDARY     84   LAYER   1   ROW     6   COL     9   RATE     742.708    
 BOUNDARY     85   LAYER   1   ROW     6   COL    10   RATE     742.708    
 BOUNDARY     86   LAYER   1   ROW     6   COL    11   RATE     742.708    
 BOUNDARY     87   LAYER   1   ROW     6   COL    12   RATE     742.708    
 BOUNDARY     88   LAYER   1   ROW     6   COL    13   RATE     742.708    
 BOUNDARY     89   LAYER   1   ROW     6   COL    14   RATE     742.708    
 BOUNDARY     90   LAYER   1   ROW     6   COL    15   RATE     742.708    
 BOUNDARY     91   LAYER   1   ROW     7   COL     1   RATE     742.708    
 BOUNDARY     92   LAYER   1   ROW     7   COL     2   RATE     742.708    
 BOUNDARY     93   LAYER   1   ROW     7   COL     3   RATE     742.708    
 BOUNDARY     94   LAYER   1   ROW     7   COL     4   RATE     742.708    
 BOUNDARY     95   LAYER   1   ROW     7   COL     5   RATE     742.708    
 BOUNDARY     96   LAYER   1   ROW     7   COL     6   RATE     742.708    
 BOUNDARY     97   LAYER   1   ROW     7   COL     7   RATE     742.708    
 BOUNDARY     98   LAYER   1   ROW     7   COL     8   RATE     742.708    
 BOUNDARY     99   LAYER   1   ROW     7   COL     9   RATE     742.708    
 BOUNDARY    100   LAYER   1   ROW     7   COL    10   RATE     742.708    
 BOUNDARY    101   LAYER   1   ROW     7   COL    11   RATE     742.708    
 BOUNDARY    102   LAYER   1   ROW     7   COL    12   RATE     742.708    
 BOUNDARY    103   LAYER   1   ROW     7   COL    13   RATE     742.708    
 BOUNDARY    104   LAYER   1   ROW     7   COL    14   RATE     742.708    
 BOUNDARY    105   LAYER   1   ROW     7   COL    15   RATE     742.708    
 BOUNDARY    106   LAYER   1   ROW     8   COL     1   RATE     742.708    
 BOUNDARY    107   LAYER   1   ROW     8   COL     2   RATE     742.708    
 BOUNDARY    108   LAYER   1   ROW     8   COL     3   RATE     742.708    
 BOUNDARY    109   LAYER   1   ROW     8   COL     4   RATE     742.708    
 BOUNDARY    110   LAYER   1   ROW     8   COL     5   RATE     742.708    
 BOUNDARY    111   LAYER   1   ROW     8   COL     6   RATE     742.708    
 BOUNDARY    112   LAYER   1   ROW     8   COL     7   RATE     742.708    
 BOUNDARY    113   LAYER   1   ROW     8   COL     8   RATE     742.708    
 BOUNDARY    114   LAYER   1   ROW     8   COL     9   RATE     742.708    
 BOUNDARY    115   LAYER   1   ROW     8   COL    10   RATE     742.708    
 BOUNDARY    116   LAYER   1   ROW     8   COL    11   RATE     742.708    
 BOUNDARY    117   LAYER   1   ROW     8   COL    12   RATE     742.708    
 BOUNDARY    118   LAYER   1   ROW     8   COL    13   RATE     742.708    
 BOUNDARY    119   LAYER   1   ROW     8   COL    14   RATE     742.708    
 BOUNDARY    120   LAYER   1   ROW     8   COL    15   RATE     742.708    
 BOUNDARY    121   LAYER   1   ROW     9   COL     1   RATE     742.708    
 BOUNDARY    122   LAYER   1   ROW     9   COL     2   RATE     742.708    
 BOUNDARY    123   LAYER   1   ROW     9   COL     3   RATE     742.708    
 BOUNDARY    124   LAYER   1   ROW     9   COL     4   RATE     742.708    
 BOUNDARY    125   LAYER   1   ROW     9   COL     5   RATE     742.708    
 BOUNDARY    126   LAYER   1   ROW     9   COL     6   RATE     742.708    
 BOUNDARY    127   LAYER   1   ROW     9   COL     7   RATE     742.708    
 BOUNDARY    128   LAYER   1   ROW     9   COL     8   RATE     742.708    
 BOUNDARY    129   LAYER   1   ROW     9   COL     9   RATE     742.708    
 BOUNDARY    130   LAYER   1   ROW     9   COL    10   RATE     742.708    
 BOUNDARY    131   LAYER   1   ROW     9   COL    11   RATE     742.708    
 BOUNDARY    132   LAYER   1   ROW     9   COL    12   RATE     742.708    
 BOUNDARY    133   LAYER   1   ROW     9   COL    13   RATE     742.708    
 BOUNDARY    134   LAYER   1   ROW     9   COL    14   RATE     742.708    
 BOUNDARY    135   LAYER   1   ROW     9   COL    15   RATE     742.708    
 BOUNDARY    136   LAYER   1   ROW    10   COL     1   RATE     742.708    
 BOUNDARY    137   LAYER   1   ROW    10   COL     2   RATE     742.708    
 BOUNDARY    138   LAYER   1   ROW    10   COL     3   RATE     742.708    
 BOUNDARY    139   LAYER   1   ROW    10   COL     4   RATE     742.708    
 BOUNDARY    140   LAYER   1   ROW    10   COL     5   RATE     742.708    
 BOUNDARY    141   LAYER   1   ROW    10   COL     6   RATE     742.708    
 BOUNDARY    142   LAYER   1   ROW    10   COL     7   RATE     742.708    
 BOUNDARY    143   LAYER   1   ROW    10   COL     8   RATE     742.708    
 BOUNDARY    144   LAYER   1   ROW    10   COL     9   RATE     742.708    
 BOUNDARY    145   LAYER   1   ROW    10   COL    10   RATE     742.708    
 BOUNDARY    146   LAYER   1   ROW    10   COL    11   RATE     742.708    
 BOUNDARY    147   LAYER   1   ROW    10   COL    12   RATE     742.708    
 BOUNDARY    148   LAYER   1   ROW    10   COL    13   RATE     742.708    
 BOUNDARY    149   LAYER   1   ROW    10   COL    14   RATE     742.708    
 BOUNDARY    150   LAYER   1   ROW    10   COL    15   RATE     742.708    
 UBDSV4 SAVING ET SEGS          ON UNIT   1016 AT TIME STEP     92, STRESS PERIOD      7

 ET SEGS            PERIOD  7   STEP 92
 BOUNDARY      1   LAYER   1   ROW     1   COL     1   RATE    -7.73597    
 BOUNDARY      2   LAYER   1   ROW     1   COL     2   RATE    -25.4057    
 BOUNDARY      3   LAYER   1   ROW     1   COL     3   RATE    -122.667    
 BOUNDARY      4   LAYER   1   ROW     1   COL     4   RATE    -122.667    
 BOUNDARY      5   LAYER   1   ROW     1   COL     5   RATE    -122.667    
 BOUNDARY      6   LAYER   1   ROW     1   COL     6   RATE    -122.667    
 BOUNDARY      7   LAYER   1   ROW     1   COL     7   RATE    -122.667    
 BOUNDARY      8   LAYER   1   ROW     1   COL     8   RATE    -122.667    
 BOUNDARY      9   LAYER   1   ROW     1   COL     9   RATE    -122.667    
 BOUNDARY     10   LAYER   1   ROW     1   COL    10   RATE    -122.667    
 BOUNDARY     11   LAYER   1   ROW     1   COL    11   RATE    -122.667    
 BOUNDARY     12   LAYER   1   ROW     1   COL    12   RATE    -44.8521    
 BOUNDARY     13   LAYER   1   ROW     1   COL    13   RATE    -4.00202    
 BOUNDARY     14   LAYER   1   ROW     1   COL    14   RATE     0.00000    
 BOUNDARY     15   LAYER   1   ROW     1   COL    15   RATE     0.00000    
 BOUNDARY     16   LAYER   1   ROW     2   COL     1   RATE     0.00000    
 BOUNDARY     17   LAYER   1   ROW     2   COL     2   RATE    -10.4786    
 BOUNDARY     18   LAYER   1   ROW     2   COL     3   RATE    -114.074    
 BOUNDARY     19   LAYER   1   ROW     2   COL     4   RATE    -122.667    
 BOUNDARY     20   LAYER   1   ROW     2   COL     5   RATE    -122.667    
 BOUNDARY     21   LAYER   1   ROW     2   COL     6   RATE    -122.667    
 BOUNDARY     22   LAYER   1   ROW     2   COL     7   RATE    -122.667    
 BOUNDARY     23   LAYER   1   ROW     2   COL     8   RATE    -122.667    
 BOUNDARY     24   LAYER   1   ROW     2   COL     9   RATE    -122.667    
 BOUNDARY     25   LAYER   1   ROW     2   COL    10   RATE    -122.667    
 BOUNDARY     26   LAYER   1   ROW     2   COL    11   RATE    -122.667    
 BOUNDARY     27   LAYER   1   ROW     2   COL    12   RATE    -55.5477    
 BOUNDARY     28   LAYER   1   ROW     2   COL    13   RATE    -5.19469    
 BOUNDARY     29   LAYER   1   ROW     2   COL    14   RATE     0.00000    
 BOUNDARY     30   LAYER   1   ROW     2   COL    15   RATE     0.00000    
 BOUNDARY     31   LAYER   1   ROW     3   COL     1   RATE     0.00000    
 BOUNDARY     32   LAYER   1   ROW     3   COL     2   RATE    -1.67405    
 BOUNDARY     33   LAYER   1   ROW     3   COL     3   RATE    -75.1237    
 BOUNDARY     34   LAYER   1   ROW     3   COL     4   RATE    -122.667    
 BOUNDARY     35   LAYER   1   ROW     3   COL     5   RATE    -122.667    
 BOUNDARY     36   LAYER   1   ROW     3   COL     6   RATE    -122.667    
 BOUNDARY     37   LAYER   1   ROW     3   COL     7   RATE    -122.667    
 BOUNDARY     38   LAYER   1   ROW     3   COL     8   RATE    -122.667    
 BOUNDARY     39   LAYER   1   ROW     3   COL     9   RATE    -122.667    
 BOUNDARY     40   LAYER   1   ROW     3   COL    10   RATE    -122.667    
 BOUNDARY     41   LAYER   1   ROW     3   COL    11   RATE    -122.667    
 BOUNDARY     42   LAYER   1   ROW     3   COL    12   RATE    -73.4569    
 BOUNDARY     43   LAYER   1   ROW     3   COL    13   RATE    -7.35866    
 BOUNDARY     44   LAYER   1   ROW     3   COL    14   RATE     0.00000    
 BOUNDARY     45   LAYER   1   ROW     3   COL    15   RATE     0.00000    
 BOUNDARY     46   LAYER   1   ROW     4   COL     1   RATE     0.00000    
 BOUNDARY     47   LAYER   1   ROW     4   COL     2   RATE    -8.58805    
 BOUNDARY     48   LAYER   1   ROW     4   COL     3   RATE    -100.442    
 BOUNDARY     49   LAYER   1   ROW     4   COL     4   RATE    -122.667    
 BOUNDARY     50   LAYER   1   ROW     4   COL     5   RATE    -122.667    
 BOUNDARY     51   LAYER   1   ROW     4   COL     6   RATE    -122.667    
 BOUNDARY     52   LAYER   1   ROW     4   COL     7   RATE    -122.667    
 BOUNDARY     53   LAYER   1   ROW     4   COL     8   RATE    -122.667    
 BOUNDARY     54   LAYER   1   ROW     4   COL     9   RATE    -122.667    
 BOUNDARY     55   LAYER   1   ROW     4   COL    10   RATE    -122.667    
 BOUNDARY     56   LAYER   1   ROW     4   COL    11   RATE    -122.667    
 BOUNDARY     57   LAYER   1   ROW     4   COL    12   RATE    -90.2654    
 BOUNDARY     58   LAYER   1   ROW     4   COL    13   RATE    -9.09529    
 BOUNDARY     59   LAYER   1   ROW     4   COL    14   RATE     0.00000    
 BOUNDARY     60   LAYER   1   ROW     4   COL    15   RATE     0.00000    
 BOUNDARY     61   LAYER   1   ROW     5   COL     1   RATE   -0.643440    
 BOUNDARY     62   LAYER   1   ROW     5   COL     2   RATE    -12.5250    
 BOUNDARY     63   LAYER   1   ROW     5   COL     3   RATE    -122.667    
 BOUNDARY     64   LAYER   1   ROW     5   COL     4   RATE    -122.667    
 BOUNDARY     65   LAYER   1   ROW     5   COL     5   RATE    -122.667    
 BOUNDARY     66   LAYER   1   ROW     5   COL     6   RATE    -122.667    
 BOUNDARY     67   LAYER   1   ROW     5   COL     7   RATE    -122.667    
 BOUNDARY     68   LAYER   1   ROW     5   COL     8   RATE    -122.667    
 BOUNDARY     69   LAYER   1   ROW     5   COL     9   RATE    -122.667    
 BOUNDARY     70   LAYER   1   ROW     5   COL    10   RATE    -122.667    
 BOUNDARY     71   LAYER   1   ROW     5   COL    11   RATE    -122.667    
 BOUNDARY     72   LAYER   1   ROW     5   COL    12   RATE    -101.684    
 BOUNDARY     73   LAYER   1   ROW     5   COL    13   RATE    -10.1397    
 BOUNDARY     74   LAYER   1   ROW     5   COL    14   RATE     0.00000    
 BOUNDARY     75   LAYER   1   ROW     5   COL    15   RATE     0.00000    
 BOUNDARY     76   LAYER   1   ROW     6   COL     1   RATE     0.00000    
 BOUNDARY     77   LAYER   1   ROW     6   COL     2   RATE    -10.3954    
 BOUNDARY     78   LAYER   1   ROW     6   COL     3   RATE    -122.667    
 BOUNDARY     79   LAYER   1   ROW     6   COL     4   RATE    -122.667    
 BOUNDARY     80   LAYER   1   ROW     6   COL     5   RATE    -122.667    
 BOUNDARY     81   LAYER   1   ROW     6   COL     6   RATE    -122.667    
 BOUNDARY     82   LAYER   1   ROW     6   COL     7   RATE    -122.667    
 BOUNDARY     83   LAYER   1   ROW     6   COL     8   RATE    -122.667    
 BOUNDARY     84   LAYER   1   ROW     6   COL     9   RATE    -122.667    
 BOUNDARY     85   LAYER   1   ROW     6   COL    10   RATE    -122.667    
 BOUNDARY     86   LAYER   1   ROW     6   COL    11   RATE    -122.667    
 BOUNDARY     87   LAYER   1   ROW     6   COL    12   RATE    -105.463    
 BOUNDARY     88   LAYER   1   ROW     6   COL    13   RATE    -10.0710    
 BOUNDARY     89   LAYER   1   ROW     6   COL    14   RATE     0.00000    
 BOUNDARY     90   LAYER   1   ROW     6   COL    15   RATE     0.00000    
 BOUNDARY     91   LAYER   1   ROW     7   COL     1   RATE     0.00000    
 BOUNDARY     92   LAYER   1   ROW     7   COL     2   RATE    -5.69659    
 BOUNDARY     93   LAYER   1   ROW     7   COL     3   RATE    -122.667    
 BOUNDARY     94   LAYER   1   ROW     7   COL     4   RATE    -122.667    
 BOUNDARY     95   LAYER   1   ROW     7   COL     5   RATE    -122.667    
 BOUNDARY     96   LAYER   1   ROW     7   COL     6   RATE    -122.667    
 BOUNDARY     97   LAYER   1   ROW     7   COL     7   RATE    -122.667    
 BOUNDARY     98   LAYER   1   ROW     7   COL     8   RATE    -122.667    
 BOUNDARY     99   LAYER   1   ROW     7   COL     9   RATE    -122.667    
 BOUNDARY    100   LAYER   1   ROW     7   COL    10   RATE    -122.667    
 BOUNDARY    101   LAYER   1   ROW     7   COL    11   RATE    -122.667    
 BOUNDARY    102   LAYER   1   ROW     7   COL    12   RATE    -104.668    
 BOUNDARY    103   LAYER   1   ROW     7   COL    13   RATE    -9.21957    
 BOUNDARY    104   LAYER   1   ROW     7   COL    14   RATE     0.00000    
 BOUNDARY    105   LAYER   1   ROW     7   COL    15   RATE     0.00000    
 BOUNDARY    106   LAYER   1   ROW     8   COL     1   RATE    -2.34597    
 BOUNDARY    107   LAYER   1   ROW     8   COL     2   RATE    -30.0434    
 BOUNDARY    108   LAYER   1   ROW     8   COL     3   RATE    -122.667    
 BOUNDARY    109   LAYER   1   ROW     8   COL     4   RATE    -122.667    
 BOUNDARY    110   LAYER   1   ROW     8   COL     5   RATE    -122.667    
 BOUNDARY    111   LAYER   1   ROW     8   COL     6   RATE    -122.667    
 BOUNDARY    112   LAYER   1   ROW     8   COL     7   RATE    -122.667    
 BOUNDARY    113   LAYER   1   ROW     8   COL     8   RATE    -122.667    
 BOUNDARY    114   LAYER   1   ROW     8   COL     9   RATE    -122.667    
 BOUNDARY    115   LAYER   1   ROW     8   COL    10   RATE    -122.667    
 BOUNDARY    116   LAYER   1   ROW     8   COL    11   RATE    -122.667    
 BOUNDARY    117   LAYER   1   ROW     8   COL    12   RATE    -107.581    
 BOUNDARY    118   LAYER   1   ROW     8   COL    13   RATE    -9.29207    
 BOUNDARY    119   LAYER   1   ROW     8   COL    14   RATE     0.00000    
 BOUNDARY    120   LAYER   1   ROW     8   COL    15   RATE     0.00000    
 BOUNDARY    121   LAYER   1   ROW     9   COL     1   RATE    -51.2392    
 BOUNDARY    122   LAYER   1   ROW     9   COL     2   RATE    -122.667    
 BOUNDARY    123   LAYER   1   ROW     9   COL     3   RATE    -122.667    
 BOUNDARY    124   LAYER   1   ROW     9   COL     4   RATE    -122.667    
 BOUNDARY    125   LAYER   1   ROW     9   COL     5   RATE    -122.667    
 BOUNDARY    126   LAYER   1   ROW     9   COL     6   RATE    -122.667    
 BOUNDARY    127   LAYER   1   ROW     9   COL     7   RATE    -122.667    
 BOUNDARY    128   LAYER   1   ROW     9   COL     8   RATE    -122.667    
 BOUNDARY    129   LAYER   1   ROW     9   COL     9   RATE    -122.667    
 BOUNDARY    130   LAYER   1   ROW     9   COL    10   RATE    -122.667    
 BOUNDARY    131   LAYER   1   ROW     9   COL    11   RATE    -122.667    
 BOUNDARY    132   LAYER   1   ROW     9   COL    12   RATE    -114.977    
 BOUNDARY    133   LAYER   1   ROW     9   COL    13   RATE    -10.3679    
 BOUNDARY    134   LAYER   1   ROW     9   COL    14   RATE     0.00000    
 BOUNDARY    135   LAYER   1   ROW     9   COL    15   RATE     0.00000    
 BOUNDARY    136   LAYER   1   ROW    10   COL     1   RATE    -122.667    
 BOUNDARY    137   LAYER   1   ROW    10   COL     2   RATE    -122.667    
 BOUNDARY    138   LAYER   1   ROW    10   COL     3   RATE    -122.667    
 BOUNDARY    139   LAYER   1   ROW    10   COL     4   RATE    -122.667    
 BOUNDARY    140   LAYER   1   ROW    10   COL     5   RATE    -122.667    
 BOUNDARY    141   LAYER   1   ROW    10   COL     6   RATE    -122.667    
 BOUNDARY    142   LAYER   1   ROW    10   COL     7   RATE    -122.667    
 BOUNDARY    143   LAYER   1   ROW    10   COL     8   RATE    -122.667    
 BOUNDARY    144   LAYER   1   ROW    10   COL     9   RATE    -122.667    
 BOUNDARY    145   LAYER   1   ROW    10   COL    10   RATE    -122.667    
 BOUNDARY    146   LAYER   1   ROW    10   COL    11   RATE    -122.667    
 BOUNDARY    147   LAYER   1   ROW    10   COL    12   RATE    -120.253    
 BOUNDARY    148   LAYER   1   ROW    10   COL    13   RATE    -11.0543    
 BOUNDARY    149   LAYER   1   ROW    10   COL    14   RATE     0.00000    
 BOUNDARY    150   LAYER   1   ROW    10   COL    15   RATE     0.00000    
1
  HEAD             IN LAYER   1 AT END OF TIME STEP  92 IN STRESS PERIOD    7
  ---------------------------------------------------------------------------

           1          2          3          4          5          6          7          8
 ........................................................................................
   1   133.15325  136.60668  140.62573  144.17723  146.87105  148.62107  149.42007  149.26812
   2   127.62134  134.27118  139.79985  143.90402  146.79644  148.61940  149.44776  149.31204
   3   110.46192  130.68236  138.89263  143.66189  146.76090  148.65733  149.51640  149.39964
   4   126.33069  133.50056  139.48235  143.85228  146.88592  148.77703  149.64186  149.52908
   5   130.26227  135.03159  140.06957  144.17108  147.11824  148.98134  149.86033  149.71232
   6   127.01163  134.23724  140.15525  144.46298  147.42365  149.30598  150.44447  150.26556
   7   112.00503  132.32198  140.33517  144.92434  147.86751  149.78312  150.93381  150.67737
   8   130.95624  137.17378  142.20469  145.88005  148.52610  150.55568  151.42564  151.02727
   9   138.33632  140.92986  144.05872  146.85792  149.14929  151.05742  151.78581  151.28531
  10   141.16488  142.78031  145.10466  147.44317  149.51899  151.32149  151.97613  151.42278
1
  HEAD             IN LAYER   1 AT END OF TIME STEP  92 IN STRESS PERIOD    7
  ---------------------------------------------------------------------------

           9         10         11         12         13         14         15
 .............................................................................
   1   148.14808  146.01147  142.75806  138.18755  131.63126  121.94700  106.28848
   2   148.20906  146.10090  142.90169  138.43667  132.11740  122.84243  107.41125
   3   148.32045  146.25548  143.14157  138.85381  132.99945  124.96842  114.17286
   4   148.46469  146.43567  143.39402  139.24531  133.70732  126.20002  115.63217
   5   148.62781  146.60856  143.59900  139.51127  134.13304  127.01823  117.86731
   6   148.82220  146.76079  143.73138  139.59929  134.10501  126.69604  117.21411
   7   149.07633  146.90456  143.81815  139.58077  133.75798  125.15485  110.58049
   8   149.31316  147.04434  143.91585  139.64863  133.78753  125.10325  110.42877
   9   149.49821  147.16538  144.02746  139.82088  134.22605  126.52476  116.15926
  10   149.60030  147.23689  144.10114  139.94378  134.50585  127.14195  117.05885
1
  HEAD             IN LAYER   2 AT END OF TIME STEP  92 IN STRESS PERIOD    7
  ---------------------------------------------------------------------------

           1          2          3          4          5          6          7          8
 ........................................................................................
   1   133.99137  136.29302  139.49036  142.59421  145.09618  146.77533  147.54298  147.35949
   2   132.12475  135.25746  139.03451  142.42428  145.05226  146.78530  147.57723  147.40806
   3   129.39196  134.08693  138.60121  142.29587  145.05197  146.84085  147.65925  147.50662
   4   131.44258  134.81488  138.85951  142.44263  145.18558  146.98075  147.80641  147.65743
   5   132.69111  135.54358  139.28584  142.74486  145.43869  147.21553  148.03555  147.86785
   6   132.31645  135.65486  139.62206  143.12005  145.79245  147.55094  148.37222  148.16265
   7   131.27031  135.86259  140.17996  143.67141  146.27020  147.97840  148.75449  148.48222
   8   135.27848  138.13217  141.50601  144.51223  146.86721  148.46815  149.13924  148.78079
   9   138.61004  140.37883  142.87137  145.34495  147.41699  148.87442  149.44489  149.01095
  10   140.32763  141.64580  143.68421  145.84806  147.74319  149.10428  149.61341  149.13618
1
  HEAD             IN LAYER   2 AT END OF TIME STEP  92 IN STRESS PERIOD    7
  ---------------------------------------------------------------------------

           9         10         11         12         13         14         15
 .............................................................................
   1   146.19472  144.01049  140.75604  136.38028  130.88670  124.64025  119.10991
   2   146.25879  144.10070  140.89532  136.61100  131.28063  125.28013  119.99609
   3   146.37797  144.25867  141.12934  136.99140  131.93957  126.43163  121.89641
   4   146.53855  144.44907  141.38491  137.37090  132.53775  127.35110  123.12896
   5   146.73011  144.64227  141.60503  137.64876  132.91768  127.89057  123.89336
   6   146.95056  144.82455  141.76692  137.78676  132.99896  127.84525  123.67917
   7   147.18604  144.99549  141.88957  137.84301  132.90626  127.39588  122.53706
   8   147.40456  145.15282  142.00958  137.93772  132.97465  127.42460  122.52009
   9   147.57460  145.28139  142.12649  138.08564  133.23705  127.97770  123.65001
  10   147.66813  145.35515  142.20050  138.19130  133.42930  128.33489  124.20341

 HEAD WILL BE SAVED ON UNIT 1017 AT END OF TIME STEP   92, STRESS PERIOD    7
1
  VOLUME BUDGET FOR ENTIRE MODEL AT END OF TIME STEP   92, STRESS PERIOD   7
  ------------------------------------------------------------------------------

     CUMULATIVE VOLUME      L**3       RATES FOR THIS TIME STEP      L**3/T
     ------------------                 ------------------------

           IN:                                      IN:
           ---                                      ---
             STORAGE =       55496.7350               STORAGE =         194.3665
    WELLS NEAR RIVER =           0.0000      WELLS NEAR RIVER =           0.0000
               RIVER =           0.0000                 RIVER =           0.0000
           GHB LAKES =           0.0000             GHB LAKES =           0.0000
            RECHARGE =    27447500.0000              RECHARGE =      111406.2500
             ET SEGS =           0.0000               ET SEGS =           0.0000

            TOTAL IN =    27502996.7350              TOTAL IN =      111600.6165

          OUT:                                     OUT:
          ----                                     ----
             STORAGE =     7701502.1451               STORAGE =       24139.0690
    WELLS NEAR RIVER =        5570.0000      WELLS NEAR RIVER =           0.0000
               RIVER =     9686347.9179                 RIVER =       42839.7387
           GHB LAKES =     7476168.6966             GHB LAKES =       32120.8557
            RECHARGE =           0.0000              RECHARGE =           0.0000
             ET SEGS =     2633407.9809               ET SEGS =       12500.9533

           TOTAL OUT =    27502996.7406             TOTAL OUT =      111600.6167

            IN - OUT =      -5.5742E-03              IN - OUT =      -1.7630E-04

 PERCENT DISCREPANCY =          -0.00     PERCENT DISCREPANCY =          -0.00






         TIME SUMMARY AT END OF TIME STEP   92 IN STRESS PERIOD    7
                    SECONDS     MINUTES      HOURS       DAYS        YEARS
                    -----------------------------------------------------------
   TIME STEP LENGTH  86400.      1440.0      24.000     1.00000     2.73785E-03
 STRESS PERIOD TIME 7.94880E+06 1.32480E+05  2208.0      92.000     0.25188    
         TOTAL TIME 2.10816E+07 3.51360E+05  5856.0      244.00     0.66804    
RIV   no.    1 value from time series:   101.00     for time:  244.0     to  245.0    
RIV   no.    2 value from time series:   101.00     for time:  244.0     to  245.0    
RIV   no.    3 value from time series:   111.50     for time:  244.0     to  245.0    
RIV   no.    4 value from time series:   111.50     for time:  244.0     to  245.0    
RIV   no.    5 value from time series:   115.10     for time:  244.0     to  245.0    
RIV   no.    6 value from time series:   115.10     for time:  244.0     to  245.0    
RIV   no.    7 value from time series:   104.00     for time:  244.0     to  245.0    
RIV   no.    8 value from time series:   104.00     for time:  244.0     to  245.0    
RIV   no.    9 value from time series:   113.50     for time:  244.0     to  245.0    
RIV   no.   10 value from time series:   113.50     for time:  244.0     to  245.0    
RIV   no.    1 value from time series:   101.00     for time:  244.0     to  245.0    
RIV   no.    2 value from time series:   101.00     for time:  244.0     to  245.0    
RIV   no.    3 value from time series:   111.50     for time:  244.0     to  245.0    
RIV   no.    4 value from time series:   111.50     for time:  244.0     to  245.0    
RIV   no.    5 value from time series:   115.10     for time:  244.0     to  245.0    
RIV   no.    6 value from time series:   115.10     for time:  244.0     to  245.0    
RIV   no.    7 value from time series:   104.00     for time:  244.0     to  245.0    
RIV   no.    8 value from time series:   104.00     for time:  244.0     to  245.0    
RIV   no.    9 value from time series:   113.50     for time:  244.0     to  245.0    
RIV   no.   10 value from time series:   113.50     for time:  244.0     to  245.0    

 NO OUTPUT CONTROL FOR STRESS PERIOD    7   TIME STEP   93
RIV   no.    1 value from time series:   101.00     for time:  245.0     to  246.0    
RIV   no.    2 value from time series:   101.00     for time:  245.0     to  246.0    
RIV   no.    3 value from time series:   111.50     for time:  245.0     to  246.0    
RIV   no.    4 value from time series:   111.50     for time:  245.0     to  246.0    
RIV   no.    5 value from time series:   115.10     for time:  245.0     to  246.0    
RIV   no.    6 value from time series:   115.10     for time:  245.0     to  246.0    
RIV   no.    7 value from time series:   104.00     for time:  245.0     to  246.0    
RIV   no.    8 value from time series:   104.00     for time:  245.0     to  246.0    
RIV   no.    9 value from time series:   113.50     for time:  245.0     to  246.0    
RIV   no.   10 value from time series:   113.50     for time:  245.0     to  246.0    
RIV   no.    1 value from time series:   101.00     for time:  245.0     to  246.0    
RIV   no.    2 value from time series:   101.00     for time:  245.0     to  246.0    
RIV   no.    3 value from time series:   111.50     for time:  245.0     to  246.0    
RIV   no.    4 value from time series:   111.50     for time:  245.0     to  246.0    
RIV   no.    5 value from time series:   115.10     for time:  245.0     to  246.0    
RIV   no.    6 value from time series:   115.10     for time:  245.0     to  246.0    
RIV   no.    7 value from time series:   104.00     for time:  245.0     to  246.0    
RIV   no.    8 value from time series:   104.00     for time:  245.0     to  246.0    
RIV   no.    9 value from time series:   113.50     for time:  245.0     to  246.0    
RIV   no.   10 value from time series:   113.50     for time:  245.0     to  246.0    

 NO OUTPUT CONTROL FOR STRESS PERIOD    7   TIME STEP   94
RIV   no.    1 value from time series:   101.00     for time:  246.0     to  247.0    
RIV   no.    2 value from time series:   101.00     for time:  246.0     to  247.0    
RIV   no.    3 value from time series:   111.50     for time:  246.0     to  247.0    
RIV   no.    4 value from time series:   111.50     for time:  246.0     to  247.0    
RIV   no.    5 value from time series:   115.10     for time:  246.0     to  247.0    
RIV   no.    6 value from time series:   115.10     for time:  246.0     to  247.0    
RIV   no.    7 value from time series:   104.00     for time:  246.0     to  247.0    
RIV   no.    8 value from time series:   104.00     for time:  246.0     to  247.0    
RIV   no.    9 value from time series:   113.50     for time:  246.0     to  247.0    
RIV   no.   10 value from time series:   113.50     for time:  246.0     to  247.0    
RIV   no.    1 value from time series:   101.00     for time:  246.0     to  247.0    
RIV   no.    2 value from time series:   101.00     for time:  246.0     to  247.0    
RIV   no.    3 value from time series:   111.50     for time:  246.0     to  247.0    
RIV   no.    4 value from time series:   111.50     for time:  246.0     to  247.0    
RIV   no.    5 value from time series:   115.10     for time:  246.0     to  247.0    
RIV   no.    6 value from time series:   115.10     for time:  246.0     to  247.0    
RIV   no.    7 value from time series:   104.00     for time:  246.0     to  247.0    
RIV   no.    8 value from time series:   104.00     for time:  246.0     to  247.0    
RIV   no.    9 value from time series:   113.50     for time:  246.0     to  247.0    
RIV   no.   10 value from time series:   113.50     for time:  246.0     to  247.0    

 NO OUTPUT CONTROL FOR STRESS PERIOD    7   TIME STEP   95
RIV   no.    1 value from time series:   101.00     for time:  247.0     to  248.0    
RIV   no.    2 value from time series:   101.00     for time:  247.0     to  248.0    
RIV   no.    3 value from time series:   111.50     for time:  247.0     to  248.0    
RIV   no.    4 value from time series:   111.50     for time:  247.0     to  248.0    
RIV   no.    5 value from time series:   115.10     for time:  247.0     to  248.0    
RIV   no.    6 value from time series:   115.10     for time:  247.0     to  248.0    
RIV   no.    7 value from time series:   104.00     for time:  247.0     to  248.0    
RIV   no.    8 value from time series:   104.00     for time:  247.0     to  248.0    
RIV   no.    9 value from time series:   113.50     for time:  247.0     to  248.0    
RIV   no.   10 value from time series:   113.50     for time:  247.0     to  248.0    
RIV   no.    1 value from time series:   101.00     for time:  247.0     to  248.0    
RIV   no.    2 value from time series:   101.00     for time:  247.0     to  248.0    
RIV   no.    3 value from time series:   111.50     for time:  247.0     to  248.0    
RIV   no.    4 value from time series:   111.50     for time:  247.0     to  248.0    
RIV   no.    5 value from time series:   115.10     for time:  247.0     to  248.0    
RIV   no.    6 value from time series:   115.10     for time:  247.0     to  248.0    
RIV   no.    7 value from time series:   104.00     for time:  247.0     to  248.0    
RIV   no.    8 value from time series:   104.00     for time:  247.0     to  248.0    
RIV   no.    9 value from time series:   113.50     for time:  247.0     to  248.0    
RIV   no.   10 value from time series:   113.50     for time:  247.0     to  248.0    

 NO OUTPUT CONTROL FOR STRESS PERIOD    7   TIME STEP   96
RIV   no.    1 value from time series:   101.00     for time:  248.0     to  249.0    
RIV   no.    2 value from time series:   101.00     for time:  248.0     to  249.0    
RIV   no.    3 value from time series:   111.50     for time:  248.0     to  249.0    
RIV   no.    4 value from time series:   111.50     for time:  248.0     to  249.0    
RIV   no.    5 value from time series:   115.10     for time:  248.0     to  249.0    
RIV   no.    6 value from time series:   115.10     for time:  248.0     to  249.0    
RIV   no.    7 value from time series:   104.00     for time:  248.0     to  249.0    
RIV   no.    8 value from time series:   104.00     for time:  248.0     to  249.0    
RIV   no.    9 value from time series:   113.50     for time:  248.0     to  249.0    
RIV   no.   10 value from time series:   113.50     for time:  248.0     to  249.0    
RIV   no.    1 value from time series:   101.00     for time:  248.0     to  249.0    
RIV   no.    2 value from time series:   101.00     for time:  248.0     to  249.0    
RIV   no.    3 value from time series:   111.50     for time:  248.0     to  249.0    
RIV   no.    4 value from time series:   111.50     for time:  248.0     to  249.0    
RIV   no.    5 value from time series:   115.10     for time:  248.0     to  249.0    
RIV   no.    6 value from time series:   115.10     for time:  248.0     to  249.0    
RIV   no.    7 value from time series:   104.00     for time:  248.0     to  249.0    
RIV   no.    8 value from time series:   104.00     for time:  248.0     to  249.0    
RIV   no.    9 value from time series:   113.50     for time:  248.0     to  249.0    
RIV   no.   10 value from time series:   113.50     for time:  248.0     to  249.0    

 NO OUTPUT CONTROL FOR STRESS PERIOD    7   TIME STEP   97
RIV   no.    1 value from time series:   101.00     for time:  249.0     to  250.0    
RIV   no.    2 value from time series:   101.00     for time:  249.0     to  250.0    
RIV   no.    3 value from time series:   111.50     for time:  249.0     to  250.0    
RIV   no.    4 value from time series:   111.50     for time:  249.0     to  250.0    
RIV   no.    5 value from time series:   115.10     for time:  249.0     to  250.0    
RIV   no.    6 value from time series:   115.10     for time:  249.0     to  250.0    
RIV   no.    7 value from time series:   104.00     for time:  249.0     to  250.0    
RIV   no.    8 value from time series:   104.00     for time:  249.0     to  250.0    
RIV   no.    9 value from time series:   113.50     for time:  249.0     to  250.0    
RIV   no.   10 value from time series:   113.50     for time:  249.0     to  250.0    
RIV   no.    1 value from time series:   101.00     for time:  249.0     to  250.0    
RIV   no.    2 value from time series:   101.00     for time:  249.0     to  250.0    
RIV   no.    3 value from time series:   111.50     for time:  249.0     to  250.0    
RIV   no.    4 value from time series:   111.50     for time:  249.0     to  250.0    
RIV   no.    5 value from time series:   115.10     for time:  249.0     to  250.0    
RIV   no.    6 value from time series:   115.10     for time:  249.0     to  250.0    
RIV   no.    7 value from time series:   104.00     for time:  249.0     to  250.0    
RIV   no.    8 value from time series:   104.00     for time:  249.0     to  250.0    
RIV   no.    9 value from time series:   113.50     for time:  249.0     to  250.0    
RIV   no.   10 value from time series:   113.50     for time:  249.0     to  250.0    

 NO OUTPUT CONTROL FOR STRESS PERIOD    7   TIME STEP   98
RIV   no.    1 value from time series:   101.00     for time:  250.0     to  251.0    
RIV   no.    2 value from time series:   101.00     for time:  250.0     to  251.0    
RIV   no.    3 value from time series:   111.50     for time:  250.0     to  251.0    
RIV   no.    4 value from time series:   111.50     for time:  250.0     to  251.0    
RIV   no.    5 value from time series:   115.10     for time:  250.0     to  251.0    
RIV   no.    6 value from time series:   115.10     for time:  250.0     to  251.0    
RIV   no.    7 value from time series:   104.00     for time:  250.0     to  251.0    
RIV   no.    8 value from time series:   104.00     for time:  250.0     to  251.0    
RIV   no.    9 value from time series:   113.50     for time:  250.0     to  251.0    
RIV   no.   10 value from time series:   113.50     for time:  250.0     to  251.0    
RIV   no.    1 value from time series:   101.00     for time:  250.0     to  251.0    
RIV   no.    2 value from time series:   101.00     for time:  250.0     to  251.0    
RIV   no.    3 value from time series:   111.50     for time:  250.0     to  251.0    
RIV   no.    4 value from time series:   111.50     for time:  250.0     to  251.0    
RIV   no.    5 value from time series:   115.10     for time:  250.0     to  251.0    
RIV   no.    6 value from time series:   115.10     for time:  250.0     to  251.0    
RIV   no.    7 value from time series:   104.00     for time:  250.0     to  251.0    
RIV   no.    8 value from time series:   104.00     for time:  250.0     to  251.0    
RIV   no.    9 value from time series:   113.50     for time:  250.0     to  251.0    
RIV   no.   10 value from time series:   113.50     for time:  250.0     to  251.0    

 NO OUTPUT CONTROL FOR STRESS PERIOD    7   TIME STEP   99
RIV   no.    1 value from time series:   101.00     for time:  251.0     to  252.0    
RIV   no.    2 value from time series:   101.00     for time:  251.0     to  252.0    
RIV   no.    3 value from time series:   111.50     for time:  251.0     to  252.0    
RIV   no.    4 value from time series:   111.50     for time:  251.0     to  252.0    
RIV   no.    5 value from time series:   115.10     for time:  251.0     to  252.0    
RIV   no.    6 value from time series:   115.10     for time:  251.0     to  252.0    
RIV   no.    7 value from time series:   104.00     for time:  251.0     to  252.0    
RIV   no.    8 value from time series:   104.00     for time:  251.0     to  252.0    
RIV   no.    9 value from time series:   113.50     for time:  251.0     to  252.0    
RIV   no.   10 value from time series:   113.50     for time:  251.0     to  252.0    
RIV   no.    1 value from time series:   101.00     for time:  251.0     to  252.0    
RIV   no.    2 value from time series:   101.00     for time:  251.0     to  252.0    
RIV   no.    3 value from time series:   111.50     for time:  251.0     to  252.0    
RIV   no.    4 value from time series:   111.50     for time:  251.0     to  252.0    
RIV   no.    5 value from time series:   115.10     for time:  251.0     to  252.0    
RIV   no.    6 value from time series:   115.10     for time:  251.0     to  252.0    
RIV   no.    7 value from time series:   104.00     for time:  251.0     to  252.0    
RIV   no.    8 value from time series:   104.00     for time:  251.0     to  252.0    
RIV   no.    9 value from time series:   113.50     for time:  251.0     to  252.0    
RIV   no.   10 value from time series:   113.50     for time:  251.0     to  252.0    

 NO OUTPUT CONTROL FOR STRESS PERIOD    7   TIME STEP  100
RIV   no.    1 value from time series:   101.00     for time:  252.0     to  253.0    
RIV   no.    2 value from time series:   101.00     for time:  252.0     to  253.0    
RIV   no.    3 value from time series:   111.50     for time:  252.0     to  253.0    
RIV   no.    4 value from time series:   111.50     for time:  252.0     to  253.0    
RIV   no.    5 value from time series:   115.10     for time:  252.0     to  253.0    
RIV   no.    6 value from time series:   115.10     for time:  252.0     to  253.0    
RIV   no.    7 value from time series:   104.00     for time:  252.0     to  253.0    
RIV   no.    8 value from time series:   104.00     for time:  252.0     to  253.0    
RIV   no.    9 value from time series:   113.50     for time:  252.0     to  253.0    
RIV   no.   10 value from time series:   113.50     for time:  252.0     to  253.0    
RIV   no.    1 value from time series:   101.00     for time:  252.0     to  253.0    
RIV   no.    2 value from time series:   101.00     for time:  252.0     to  253.0    
RIV   no.    3 value from time series:   111.50     for time:  252.0     to  253.0    
RIV   no.    4 value from time series:   111.50     for time:  252.0     to  253.0    
RIV   no.    5 value from time series:   115.10     for time:  252.0     to  253.0    
RIV   no.    6 value from time series:   115.10     for time:  252.0     to  253.0    
RIV   no.    7 value from time series:   104.00     for time:  252.0     to  253.0    
RIV   no.    8 value from time series:   104.00     for time:  252.0     to  253.0    
RIV   no.    9 value from time series:   113.50     for time:  252.0     to  253.0    
RIV   no.   10 value from time series:   113.50     for time:  252.0     to  253.0    

 NO OUTPUT CONTROL FOR STRESS PERIOD    7   TIME STEP  101
RIV   no.    1 value from time series:   101.00     for time:  253.0     to  254.0    
RIV   no.    2 value from time series:   101.00     for time:  253.0     to  254.0    
RIV   no.    3 value from time series:   111.50     for time:  253.0     to  254.0    
RIV   no.    4 value from time series:   111.50     for time:  253.0     to  254.0    
RIV   no.    5 value from time series:   115.10     for time:  253.0     to  254.0    
RIV   no.    6 value from time series:   115.10     for time:  253.0     to  254.0    
RIV   no.    7 value from time series:   104.00     for time:  253.0     to  254.0    
RIV   no.    8 value from time series:   104.00     for time:  253.0     to  254.0    
RIV   no.    9 value from time series:   113.50     for time:  253.0     to  254.0    
RIV   no.   10 value from time series:   113.50     for time:  253.0     to  254.0    
RIV   no.    1 value from time series:   101.00     for time:  253.0     to  254.0    
RIV   no.    2 value from time series:   101.00     for time:  253.0     to  254.0    
RIV   no.    3 value from time series:   111.50     for time:  253.0     to  254.0    
RIV   no.    4 value from time series:   111.50     for time:  253.0     to  254.0    
RIV   no.    5 value from time series:   115.10     for time:  253.0     to  254.0    
RIV   no.    6 value from time series:   115.10     for time:  253.0     to  254.0    
RIV   no.    7 value from time series:   104.00     for time:  253.0     to  254.0    
RIV   no.    8 value from time series:   104.00     for time:  253.0     to  254.0    
RIV   no.    9 value from time series:   113.50     for time:  253.0     to  254.0    
RIV   no.   10 value from time series:   113.50     for time:  253.0     to  254.0    

 NO OUTPUT CONTROL FOR STRESS PERIOD    7   TIME STEP  102
RIV   no.    1 value from time series:   101.00     for time:  254.0     to  255.0    
RIV   no.    2 value from time series:   101.00     for time:  254.0     to  255.0    
RIV   no.    3 value from time series:   111.50     for time:  254.0     to  255.0    
RIV   no.    4 value from time series:   111.50     for time:  254.0     to  255.0    
RIV   no.    5 value from time series:   115.10     for time:  254.0     to  255.0    
RIV   no.    6 value from time series:   115.10     for time:  254.0     to  255.0    
RIV   no.    7 value from time series:   104.00     for time:  254.0     to  255.0    
RIV   no.    8 value from time series:   104.00     for time:  254.0     to  255.0    
RIV   no.    9 value from time series:   113.50     for time:  254.0     to  255.0    
RIV   no.   10 value from time series:   113.50     for time:  254.0     to  255.0    
RIV   no.    1 value from time series:   101.00     for time:  254.0     to  255.0    
RIV   no.    2 value from time series:   101.00     for time:  254.0     to  255.0    
RIV   no.    3 value from time series:   111.50     for time:  254.0     to  255.0    
RIV   no.    4 value from time series:   111.50     for time:  254.0     to  255.0    
RIV   no.    5 value from time series:   115.10     for time:  254.0     to  255.0    
RIV   no.    6 value from time series:   115.10     for time:  254.0     to  255.0    
RIV   no.    7 value from time series:   104.00     for time:  254.0     to  255.0    
RIV   no.    8 value from time series:   104.00     for time:  254.0     to  255.0    
RIV   no.    9 value from time series:   113.50     for time:  254.0     to  255.0    
RIV   no.   10 value from time series:   113.50     for time:  254.0     to  255.0    

 NO OUTPUT CONTROL FOR STRESS PERIOD    7   TIME STEP  103
RIV   no.    1 value from time series:   101.00     for time:  255.0     to  256.0    
RIV   no.    2 value from time series:   101.00     for time:  255.0     to  256.0    
RIV   no.    3 value from time series:   111.50     for time:  255.0     to  256.0    
RIV   no.    4 value from time series:   111.50     for time:  255.0     to  256.0    
RIV   no.    5 value from time series:   115.10     for time:  255.0     to  256.0    
RIV   no.    6 value from time series:   115.10     for time:  255.0     to  256.0    
RIV   no.    7 value from time series:   104.00     for time:  255.0     to  256.0    
RIV   no.    8 value from time series:   104.00     for time:  255.0     to  256.0    
RIV   no.    9 value from time series:   113.50     for time:  255.0     to  256.0    
RIV   no.   10 value from time series:   113.50     for time:  255.0     to  256.0    
RIV   no.    1 value from time series:   101.00     for time:  255.0     to  256.0    
RIV   no.    2 value from time series:   101.00     for time:  255.0     to  256.0    
RIV   no.    3 value from time series:   111.50     for time:  255.0     to  256.0    
RIV   no.    4 value from time series:   111.50     for time:  255.0     to  256.0    
RIV   no.    5 value from time series:   115.10     for time:  255.0     to  256.0    
RIV   no.    6 value from time series:   115.10     for time:  255.0     to  256.0    
RIV   no.    7 value from time series:   104.00     for time:  255.0     to  256.0    
RIV   no.    8 value from time series:   104.00     for time:  255.0     to  256.0    
RIV   no.    9 value from time series:   113.50     for time:  255.0     to  256.0    
RIV   no.   10 value from time series:   113.50     for time:  255.0     to  256.0    

 NO OUTPUT CONTROL FOR STRESS PERIOD    7   TIME STEP  104
RIV   no.    1 value from time series:   101.00     for time:  256.0     to  257.0    
RIV   no.    2 value from time series:   101.00     for time:  256.0     to  257.0    
RIV   no.    3 value from time series:   111.50     for time:  256.0     to  257.0    
RIV   no.    4 value from time series:   111.50     for time:  256.0     to  257.0    
RIV   no.    5 value from time series:   115.10     for time:  256.0     to  257.0    
RIV   no.    6 value from time series:   115.10     for time:  256.0     to  257.0    
RIV   no.    7 value from time series:   104.00     for time:  256.0     to  257.0    
RIV   no.    8 value from time series:   104.00     for time:  256.0     to  257.0    
RIV   no.    9 value from time series:   113.50     for time:  256.0     to  257.0    
RIV   no.   10 value from time series:   113.50     for time:  256.0     to  257.0    
RIV   no.    1 value from time series:   101.00     for time:  256.0     to  257.0    
RIV   no.    2 value from time series:   101.00     for time:  256.0     to  257.0    
RIV   no.    3 value from time series:   111.50     for time:  256.0     to  257.0    
RIV   no.    4 value from time series:   111.50     for time:  256.0     to  257.0    
RIV   no.    5 value from time series:   115.10     for time:  256.0     to  257.0    
RIV   no.    6 value from time series:   115.10     for time:  256.0     to  257.0    
RIV   no.    7 value from time series:   104.00     for time:  256.0     to  257.0    
RIV   no.    8 value from time series:   104.00     for time:  256.0     to  257.0    
RIV   no.    9 value from time series:   113.50     for time:  256.0     to  257.0    
RIV   no.   10 value from time series:   113.50     for time:  256.0     to  257.0    

 NO OUTPUT CONTROL FOR STRESS PERIOD    7   TIME STEP  105
RIV   no.    1 value from time series:   101.00     for time:  257.0     to  258.0    
RIV   no.    2 value from time series:   101.00     for time:  257.0     to  258.0    
RIV   no.    3 value from time series:   111.50     for time:  257.0     to  258.0    
RIV   no.    4 value from time series:   111.50     for time:  257.0     to  258.0    
RIV   no.    5 value from time series:   115.10     for time:  257.0     to  258.0    
RIV   no.    6 value from time series:   115.10     for time:  257.0     to  258.0    
RIV   no.    7 value from time series:   104.00     for time:  257.0     to  258.0    
RIV   no.    8 value from time series:   104.00     for time:  257.0     to  258.0    
RIV   no.    9 value from time series:   113.50     for time:  257.0     to  258.0    
RIV   no.   10 value from time series:   113.50     for time:  257.0     to  258.0    
RIV   no.    1 value from time series:   101.00     for time:  257.0     to  258.0    
RIV   no.    2 value from time series:   101.00     for time:  257.0     to  258.0    
RIV   no.    3 value from time series:   111.50     for time:  257.0     to  258.0    
RIV   no.    4 value from time series:   111.50     for time:  257.0     to  258.0    
RIV   no.    5 value from time series:   115.10     for time:  257.0     to  258.0    
RIV   no.    6 value from time series:   115.10     for time:  257.0     to  258.0    
RIV   no.    7 value from time series:   104.00     for time:  257.0     to  258.0    
RIV   no.    8 value from time series:   104.00     for time:  257.0     to  258.0    
RIV   no.    9 value from time series:   113.50     for time:  257.0     to  258.0    
RIV   no.   10 value from time series:   113.50     for time:  257.0     to  258.0    

 NO OUTPUT CONTROL FOR STRESS PERIOD    7   TIME STEP  106
RIV   no.    1 value from time series:   101.00     for time:  258.0     to  259.0    
RIV   no.    2 value from time series:   101.00     for time:  258.0     to  259.0    
RIV   no.    3 value from time series:   111.50     for time:  258.0     to  259.0    
RIV   no.    4 value from time series:   111.50     for time:  258.0     to  259.0    
RIV   no.    5 value from time series:   115.10     for time:  258.0     to  259.0    
RIV   no.    6 value from time series:   115.10     for time:  258.0     to  259.0    
RIV   no.    7 value from time series:   104.00     for time:  258.0     to  259.0    
RIV   no.    8 value from time series:   104.00     for time:  258.0     to  259.0    
RIV   no.    9 value from time series:   113.50     for time:  258.0     to  259.0    
RIV   no.   10 value from time series:   113.50     for time:  258.0     to  259.0    
RIV   no.    1 value from time series:   101.00     for time:  258.0     to  259.0    
RIV   no.    2 value from time series:   101.00     for time:  258.0     to  259.0    
RIV   no.    3 value from time series:   111.50     for time:  258.0     to  259.0    
RIV   no.    4 value from time series:   111.50     for time:  258.0     to  259.0    
RIV   no.    5 value from time series:   115.10     for time:  258.0     to  259.0    
RIV   no.    6 value from time series:   115.10     for time:  258.0     to  259.0    
RIV   no.    7 value from time series:   104.00     for time:  258.0     to  259.0    
RIV   no.    8 value from time series:   104.00     for time:  258.0     to  259.0    
RIV   no.    9 value from time series:   113.50     for time:  258.0     to  259.0    
RIV   no.   10 value from time series:   113.50     for time:  258.0     to  259.0    

 NO OUTPUT CONTROL FOR STRESS PERIOD    7   TIME STEP  107
RIV   no.    1 value from time series:   101.00     for time:  259.0     to  260.0    
RIV   no.    2 value from time series:   101.00     for time:  259.0     to  260.0    
RIV   no.    3 value from time series:   111.50     for time:  259.0     to  260.0    
RIV   no.    4 value from time series:   111.50     for time:  259.0     to  260.0    
RIV   no.    5 value from time series:   115.10     for time:  259.0     to  260.0    
RIV   no.    6 value from time series:   115.10     for time:  259.0     to  260.0    
RIV   no.    7 value from time series:   104.00     for time:  259.0     to  260.0    
RIV   no.    8 value from time series:   104.00     for time:  259.0     to  260.0    
RIV   no.    9 value from time series:   113.50     for time:  259.0     to  260.0    
RIV   no.   10 value from time series:   113.50     for time:  259.0     to  260.0    
RIV   no.    1 value from time series:   101.00     for time:  259.0     to  260.0    
RIV   no.    2 value from time series:   101.00     for time:  259.0     to  260.0    
RIV   no.    3 value from time series:   111.50     for time:  259.0     to  260.0    
RIV   no.    4 value from time series:   111.50     for time:  259.0     to  260.0    
RIV   no.    5 value from time series:   115.10     for time:  259.0     to  260.0    
RIV   no.    6 value from time series:   115.10     for time:  259.0     to  260.0    
RIV   no.    7 value from time series:   104.00     for time:  259.0     to  260.0    
RIV   no.    8 value from time series:   104.00     for time:  259.0     to  260.0    
RIV   no.    9 value from time series:   113.50     for time:  259.0     to  260.0    
RIV   no.   10 value from time series:   113.50     for time:  259.0     to  260.0    

 NO OUTPUT CONTROL FOR STRESS PERIOD    7   TIME STEP  108
RIV   no.    1 value from time series:   101.00     for time:  260.0     to  261.0    
RIV   no.    2 value from time series:   101.00     for time:  260.0     to  261.0    
RIV   no.    3 value from time series:   111.50     for time:  260.0     to  261.0    
RIV   no.    4 value from time series:   111.50     for time:  260.0     to  261.0    
RIV   no.    5 value from time series:   115.10     for time:  260.0     to  261.0    
RIV   no.    6 value from time series:   115.10     for time:  260.0     to  261.0    
RIV   no.    7 value from time series:   104.00     for time:  260.0     to  261.0    
RIV   no.    8 value from time series:   104.00     for time:  260.0     to  261.0    
RIV   no.    9 value from time series:   113.50     for time:  260.0     to  261.0    
RIV   no.   10 value from time series:   113.50     for time:  260.0     to  261.0    
RIV   no.    1 value from time series:   101.00     for time:  260.0     to  261.0    
RIV   no.    2 value from time series:   101.00     for time:  260.0     to  261.0    
RIV   no.    3 value from time series:   111.50     for time:  260.0     to  261.0    
RIV   no.    4 value from time series:   111.50     for time:  260.0     to  261.0    
RIV   no.    5 value from time series:   115.10     for time:  260.0     to  261.0    
RIV   no.    6 value from time series:   115.10     for time:  260.0     to  261.0    
RIV   no.    7 value from time series:   104.00     for time:  260.0     to  261.0    
RIV   no.    8 value from time series:   104.00     for time:  260.0     to  261.0    
RIV   no.    9 value from time series:   113.50     for time:  260.0     to  261.0    
RIV   no.   10 value from time series:   113.50     for time:  260.0     to  261.0    

 NO OUTPUT CONTROL FOR STRESS PERIOD    7   TIME STEP  109
RIV   no.    1 value from time series:   101.00     for time:  261.0     to  262.0    
RIV   no.    2 value from time series:   101.00     for time:  261.0     to  262.0    
RIV   no.    3 value from time series:   111.50     for time:  261.0     to  262.0    
RIV   no.    4 value from time series:   111.50     for time:  261.0     to  262.0    
RIV   no.    5 value from time series:   115.10     for time:  261.0     to  262.0    
RIV   no.    6 value from time series:   115.10     for time:  261.0     to  262.0    
RIV   no.    7 value from time series:   104.00     for time:  261.0     to  262.0    
RIV   no.    8 value from time series:   104.00     for time:  261.0     to  262.0    
RIV   no.    9 value from time series:   113.50     for time:  261.0     to  262.0    
RIV   no.   10 value from time series:   113.50     for time:  261.0     to  262.0    
RIV   no.    1 value from time series:   101.00     for time:  261.0     to  262.0    
RIV   no.    2 value from time series:   101.00     for time:  261.0     to  262.0    
RIV   no.    3 value from time series:   111.50     for time:  261.0     to  262.0    
RIV   no.    4 value from time series:   111.50     for time:  261.0     to  262.0    
RIV   no.    5 value from time series:   115.10     for time:  261.0     to  262.0    
RIV   no.    6 value from time series:   115.10     for time:  261.0     to  262.0    
RIV   no.    7 value from time series:   104.00     for time:  261.0     to  262.0    
RIV   no.    8 value from time series:   104.00     for time:  261.0     to  262.0    
RIV   no.    9 value from time series:   113.50     for time:  261.0     to  262.0    
RIV   no.   10 value from time series:   113.50     for time:  261.0     to  262.0    

 NO OUTPUT CONTROL FOR STRESS PERIOD    7   TIME STEP  110
RIV   no.    1 value from time series:   101.00     for time:  262.0     to  263.0    
RIV   no.    2 value from time series:   101.00     for time:  262.0     to  263.0    
RIV   no.    3 value from time series:   111.50     for time:  262.0     to  263.0    
RIV   no.    4 value from time series:   111.50     for time:  262.0     to  263.0    
RIV   no.    5 value from time series:   115.10     for time:  262.0     to  263.0    
RIV   no.    6 value from time series:   115.10     for time:  262.0     to  263.0    
RIV   no.    7 value from time series:   104.00     for time:  262.0     to  263.0    
RIV   no.    8 value from time series:   104.00     for time:  262.0     to  263.0    
RIV   no.    9 value from time series:   113.50     for time:  262.0     to  263.0    
RIV   no.   10 value from time series:   113.50     for time:  262.0     to  263.0    
RIV   no.    1 value from time series:   101.00     for time:  262.0     to  263.0    
RIV   no.    2 value from time series:   101.00     for time:  262.0     to  263.0    
RIV   no.    3 value from time series:   111.50     for time:  262.0     to  263.0    
RIV   no.    4 value from time series:   111.50     for time:  262.0     to  263.0    
RIV   no.    5 value from time series:   115.10     for time:  262.0     to  263.0    
RIV   no.    6 value from time series:   115.10     for time:  262.0     to  263.0    
RIV   no.    7 value from time series:   104.00     for time:  262.0     to  263.0    
RIV   no.    8 value from time series:   104.00     for time:  262.0     to  263.0    
RIV   no.    9 value from time series:   113.50     for time:  262.0     to  263.0    
RIV   no.   10 value from time series:   113.50     for time:  262.0     to  263.0    

 NO OUTPUT CONTROL FOR STRESS PERIOD    7   TIME STEP  111
RIV   no.    1 value from time series:   101.00     for time:  263.0     to  264.0    
RIV   no.    2 value from time series:   101.00     for time:  263.0     to  264.0    
RIV   no.    3 value from time series:   111.50     for time:  263.0     to  264.0    
RIV   no.    4 value from time series:   111.50     for time:  263.0     to  264.0    
RIV   no.    5 value from time series:   115.10     for time:  263.0     to  264.0    
RIV   no.    6 value from time series:   115.10     for time:  263.0     to  264.0    
RIV   no.    7 value from time series:   104.00     for time:  263.0     to  264.0    
RIV   no.    8 value from time series:   104.00     for time:  263.0     to  264.0    
RIV   no.    9 value from time series:   113.50     for time:  263.0     to  264.0    
RIV   no.   10 value from time series:   113.50     for time:  263.0     to  264.0    
RIV   no.    1 value from time series:   101.00     for time:  263.0     to  264.0    
RIV   no.    2 value from time series:   101.00     for time:  263.0     to  264.0    
RIV   no.    3 value from time series:   111.50     for time:  263.0     to  264.0    
RIV   no.    4 value from time series:   111.50     for time:  263.0     to  264.0    
RIV   no.    5 value from time series:   115.10     for time:  263.0     to  264.0    
RIV   no.    6 value from time series:   115.10     for time:  263.0     to  264.0    
RIV   no.    7 value from time series:   104.00     for time:  263.0     to  264.0    
RIV   no.    8 value from time series:   104.00     for time:  263.0     to  264.0    
RIV   no.    9 value from time series:   113.50     for time:  263.0     to  264.0    
RIV   no.   10 value from time series:   113.50     for time:  263.0     to  264.0    

 NO OUTPUT CONTROL FOR STRESS PERIOD    7   TIME STEP  112
RIV   no.    1 value from time series:   101.00     for time:  264.0     to  265.0    
RIV   no.    2 value from time series:   101.00     for time:  264.0     to  265.0    
RIV   no.    3 value from time series:   111.50     for time:  264.0     to  265.0    
RIV   no.    4 value from time series:   111.50     for time:  264.0     to  265.0    
RIV   no.    5 value from time series:   115.10     for time:  264.0     to  265.0    
RIV   no.    6 value from time series:   115.10     for time:  264.0     to  265.0    
RIV   no.    7 value from time series:   104.00     for time:  264.0     to  265.0    
RIV   no.    8 value from time series:   104.00     for time:  264.0     to  265.0    
RIV   no.    9 value from time series:   113.50     for time:  264.0     to  265.0    
RIV   no.   10 value from time series:   113.50     for time:  264.0     to  265.0    
RIV   no.    1 value from time series:   101.00     for time:  264.0     to  265.0    
RIV   no.    2 value from time series:   101.00     for time:  264.0     to  265.0    
RIV   no.    3 value from time series:   111.50     for time:  264.0     to  265.0    
RIV   no.    4 value from time series:   111.50     for time:  264.0     to  265.0    
RIV   no.    5 value from time series:   115.10     for time:  264.0     to  265.0    
RIV   no.    6 value from time series:   115.10     for time:  264.0     to  265.0    
RIV   no.    7 value from time series:   104.00     for time:  264.0     to  265.0    
RIV   no.    8 value from time series:   104.00     for time:  264.0     to  265.0    
RIV   no.    9 value from time series:   113.50     for time:  264.0     to  265.0    
RIV   no.   10 value from time series:   113.50     for time:  264.0     to  265.0    

 NO OUTPUT CONTROL FOR STRESS PERIOD    7   TIME STEP  113
RIV   no.    1 value from time series:   101.00     for time:  265.0     to  266.0    
RIV   no.    2 value from time series:   101.00     for time:  265.0     to  266.0    
RIV   no.    3 value from time series:   111.50     for time:  265.0     to  266.0    
RIV   no.    4 value from time series:   111.50     for time:  265.0     to  266.0    
RIV   no.    5 value from time series:   115.10     for time:  265.0     to  266.0    
RIV   no.    6 value from time series:   115.10     for time:  265.0     to  266.0    
RIV   no.    7 value from time series:   104.00     for time:  265.0     to  266.0    
RIV   no.    8 value from time series:   104.00     for time:  265.0     to  266.0    
RIV   no.    9 value from time series:   113.50     for time:  265.0     to  266.0    
RIV   no.   10 value from time series:   113.50     for time:  265.0     to  266.0    
RIV   no.    1 value from time series:   101.00     for time:  265.0     to  266.0    
RIV   no.    2 value from time series:   101.00     for time:  265.0     to  266.0    
RIV   no.    3 value from time series:   111.50     for time:  265.0     to  266.0    
RIV   no.    4 value from time series:   111.50     for time:  265.0     to  266.0    
RIV   no.    5 value from time series:   115.10     for time:  265.0     to  266.0    
RIV   no.    6 value from time series:   115.10     for time:  265.0     to  266.0    
RIV   no.    7 value from time series:   104.00     for time:  265.0     to  266.0    
RIV   no.    8 value from time series:   104.00     for time:  265.0     to  266.0    
RIV   no.    9 value from time series:   113.50     for time:  265.0     to  266.0    
RIV   no.   10 value from time series:   113.50     for time:  265.0     to  266.0    

 NO OUTPUT CONTROL FOR STRESS PERIOD    7   TIME STEP  114
RIV   no.    1 value from time series:   101.00     for time:  266.0     to  267.0    
RIV   no.    2 value from time series:   101.00     for time:  266.0     to  267.0    
RIV   no.    3 value from time series:   111.50     for time:  266.0     to  267.0    
RIV   no.    4 value from time series:   111.50     for time:  266.0     to  267.0    
RIV   no.    5 value from time series:   115.10     for time:  266.0     to  267.0    
RIV   no.    6 value from time series:   115.10     for time:  266.0     to  267.0    
RIV   no.    7 value from time series:   104.00     for time:  266.0     to  267.0    
RIV   no.    8 value from time series:   104.00     for time:  266.0     to  267.0    
RIV   no.    9 value from time series:   113.50     for time:  266.0     to  267.0    
RIV   no.   10 value from time series:   113.50     for time:  266.0     to  267.0    
RIV   no.    1 value from time series:   101.00     for time:  266.0     to  267.0    
RIV   no.    2 value from time series:   101.00     for time:  266.0     to  267.0    
RIV   no.    3 value from time series:   111.50     for time:  266.0     to  267.0    
RIV   no.    4 value from time series:   111.50     for time:  266.0     to  267.0    
RIV   no.    5 value from time series:   115.10     for time:  266.0     to  267.0    
RIV   no.    6 value from time series:   115.10     for time:  266.0     to  267.0    
RIV   no.    7 value from time series:   104.00     for time:  266.0     to  267.0    
RIV   no.    8 value from time series:   104.00     for time:  266.0     to  267.0    
RIV   no.    9 value from time series:   113.50     for time:  266.0     to  267.0    
RIV   no.   10 value from time series:   113.50     for time:  266.0     to  267.0    

 NO OUTPUT CONTROL FOR STRESS PERIOD    7   TIME STEP  115
RIV   no.    1 value from time series:   101.00     for time:  267.0     to  268.0    
RIV   no.    2 value from time series:   101.00     for time:  267.0     to  268.0    
RIV   no.    3 value from time series:   111.50     for time:  267.0     to  268.0    
RIV   no.    4 value from time series:   111.50     for time:  267.0     to  268.0    
RIV   no.    5 value from time series:   115.10     for time:  267.0     to  268.0    
RIV   no.    6 value from time series:   115.10     for time:  267.0     to  268.0    
RIV   no.    7 value from time series:   104.00     for time:  267.0     to  268.0    
RIV   no.    8 value from time series:   104.00     for time:  267.0     to  268.0    
RIV   no.    9 value from time series:   113.50     for time:  267.0     to  268.0    
RIV   no.   10 value from time series:   113.50     for time:  267.0     to  268.0    
RIV   no.    1 value from time series:   101.00     for time:  267.0     to  268.0    
RIV   no.    2 value from time series:   101.00     for time:  267.0     to  268.0    
RIV   no.    3 value from time series:   111.50     for time:  267.0     to  268.0    
RIV   no.    4 value from time series:   111.50     for time:  267.0     to  268.0    
RIV   no.    5 value from time series:   115.10     for time:  267.0     to  268.0    
RIV   no.    6 value from time series:   115.10     for time:  267.0     to  268.0    
RIV   no.    7 value from time series:   104.00     for time:  267.0     to  268.0    
RIV   no.    8 value from time series:   104.00     for time:  267.0     to  268.0    
RIV   no.    9 value from time series:   113.50     for time:  267.0     to  268.0    
RIV   no.   10 value from time series:   113.50     for time:  267.0     to  268.0    

 NO OUTPUT CONTROL FOR STRESS PERIOD    7   TIME STEP  116
RIV   no.    1 value from time series:   101.00     for time:  268.0     to  269.0    
RIV   no.    2 value from time series:   101.00     for time:  268.0     to  269.0    
RIV   no.    3 value from time series:   111.50     for time:  268.0     to  269.0    
RIV   no.    4 value from time series:   111.50     for time:  268.0     to  269.0    
RIV   no.    5 value from time series:   115.10     for time:  268.0     to  269.0    
RIV   no.    6 value from time series:   115.10     for time:  268.0     to  269.0    
RIV   no.    7 value from time series:   104.00     for time:  268.0     to  269.0    
RIV   no.    8 value from time series:   104.00     for time:  268.0     to  269.0    
RIV   no.    9 value from time series:   113.50     for time:  268.0     to  269.0    
RIV   no.   10 value from time series:   113.50     for time:  268.0     to  269.0    
RIV   no.    1 value from time series:   101.00     for time:  268.0     to  269.0    
RIV   no.    2 value from time series:   101.00     for time:  268.0     to  269.0    
RIV   no.    3 value from time series:   111.50     for time:  268.0     to  269.0    
RIV   no.    4 value from time series:   111.50     for time:  268.0     to  269.0    
RIV   no.    5 value from time series:   115.10     for time:  268.0     to  269.0    
RIV   no.    6 value from time series:   115.10     for time:  268.0     to  269.0    
RIV   no.    7 value from time series:   104.00     for time:  268.0     to  269.0    
RIV   no.    8 value from time series:   104.00     for time:  268.0     to  269.0    
RIV   no.    9 value from time series:   113.50     for time:  268.0     to  269.0    
RIV   no.   10 value from time series:   113.50     for time:  268.0     to  269.0    

 NO OUTPUT CONTROL FOR STRESS PERIOD    7   TIME STEP  117
RIV   no.    1 value from time series:   101.00     for time:  269.0     to  270.0    
RIV   no.    2 value from time series:   101.00     for time:  269.0     to  270.0    
RIV   no.    3 value from time series:   111.50     for time:  269.0     to  270.0    
RIV   no.    4 value from time series:   111.50     for time:  269.0     to  270.0    
RIV   no.    5 value from time series:   115.10     for time:  269.0     to  270.0    
RIV   no.    6 value from time series:   115.10     for time:  269.0     to  270.0    
RIV   no.    7 value from time series:   104.00     for time:  269.0     to  270.0    
RIV   no.    8 value from time series:   104.00     for time:  269.0     to  270.0    
RIV   no.    9 value from time series:   113.50     for time:  269.0     to  270.0    
RIV   no.   10 value from time series:   113.50     for time:  269.0     to  270.0    
RIV   no.    1 value from time series:   101.00     for time:  269.0     to  270.0    
RIV   no.    2 value from time series:   101.00     for time:  269.0     to  270.0    
RIV   no.    3 value from time series:   111.50     for time:  269.0     to  270.0    
RIV   no.    4 value from time series:   111.50     for time:  269.0     to  270.0    
RIV   no.    5 value from time series:   115.10     for time:  269.0     to  270.0    
RIV   no.    6 value from time series:   115.10     for time:  269.0     to  270.0    
RIV   no.    7 value from time series:   104.00     for time:  269.0     to  270.0    
RIV   no.    8 value from time series:   104.00     for time:  269.0     to  270.0    
RIV   no.    9 value from time series:   113.50     for time:  269.0     to  270.0    
RIV   no.   10 value from time series:   113.50     for time:  269.0     to  270.0    

 NO OUTPUT CONTROL FOR STRESS PERIOD    7   TIME STEP  118
RIV   no.    1 value from time series:   101.00     for time:  270.0     to  271.0    
RIV   no.    2 value from time series:   101.00     for time:  270.0     to  271.0    
RIV   no.    3 value from time series:   111.50     for time:  270.0     to  271.0    
RIV   no.    4 value from time series:   111.50     for time:  270.0     to  271.0    
RIV   no.    5 value from time series:   115.10     for time:  270.0     to  271.0    
RIV   no.    6 value from time series:   115.10     for time:  270.0     to  271.0    
RIV   no.    7 value from time series:   104.00     for time:  270.0     to  271.0    
RIV   no.    8 value from time series:   104.00     for time:  270.0     to  271.0    
RIV   no.    9 value from time series:   113.50     for time:  270.0     to  271.0    
RIV   no.   10 value from time series:   113.50     for time:  270.0     to  271.0    
RIV   no.    1 value from time series:   101.00     for time:  270.0     to  271.0    
RIV   no.    2 value from time series:   101.00     for time:  270.0     to  271.0    
RIV   no.    3 value from time series:   111.50     for time:  270.0     to  271.0    
RIV   no.    4 value from time series:   111.50     for time:  270.0     to  271.0    
RIV   no.    5 value from time series:   115.10     for time:  270.0     to  271.0    
RIV   no.    6 value from time series:   115.10     for time:  270.0     to  271.0    
RIV   no.    7 value from time series:   104.00     for time:  270.0     to  271.0    
RIV   no.    8 value from time series:   104.00     for time:  270.0     to  271.0    
RIV   no.    9 value from time series:   113.50     for time:  270.0     to  271.0    
RIV   no.   10 value from time series:   113.50     for time:  270.0     to  271.0    

 NO OUTPUT CONTROL FOR STRESS PERIOD    7   TIME STEP  119
RIV   no.    1 value from time series:   101.00     for time:  271.0     to  272.0    
RIV   no.    2 value from time series:   101.00     for time:  271.0     to  272.0    
RIV   no.    3 value from time series:   111.50     for time:  271.0     to  272.0    
RIV   no.    4 value from time series:   111.50     for time:  271.0     to  272.0    
RIV   no.    5 value from time series:   115.10     for time:  271.0     to  272.0    
RIV   no.    6 value from time series:   115.10     for time:  271.0     to  272.0    
RIV   no.    7 value from time series:   104.00     for time:  271.0     to  272.0    
RIV   no.    8 value from time series:   104.00     for time:  271.0     to  272.0    
RIV   no.    9 value from time series:   113.50     for time:  271.0     to  272.0    
RIV   no.   10 value from time series:   113.50     for time:  271.0     to  272.0    
RIV   no.    1 value from time series:   101.00     for time:  271.0     to  272.0    
RIV   no.    2 value from time series:   101.00     for time:  271.0     to  272.0    
RIV   no.    3 value from time series:   111.50     for time:  271.0     to  272.0    
RIV   no.    4 value from time series:   111.50     for time:  271.0     to  272.0    
RIV   no.    5 value from time series:   115.10     for time:  271.0     to  272.0    
RIV   no.    6 value from time series:   115.10     for time:  271.0     to  272.0    
RIV   no.    7 value from time series:   104.00     for time:  271.0     to  272.0    
RIV   no.    8 value from time series:   104.00     for time:  271.0     to  272.0    
RIV   no.    9 value from time series:   113.50     for time:  271.0     to  272.0    
RIV   no.   10 value from time series:   113.50     for time:  271.0     to  272.0    

 NO OUTPUT CONTROL FOR STRESS PERIOD    7   TIME STEP  120
RIV   no.    1 value from time series:   101.00     for time:  272.0     to  273.0    
RIV   no.    2 value from time series:   101.00     for time:  272.0     to  273.0    
RIV   no.    3 value from time series:   111.50     for time:  272.0     to  273.0    
RIV   no.    4 value from time series:   111.50     for time:  272.0     to  273.0    
RIV   no.    5 value from time series:   115.10     for time:  272.0     to  273.0    
RIV   no.    6 value from time series:   115.10     for time:  272.0     to  273.0    
RIV   no.    7 value from time series:   104.00     for time:  272.0     to  273.0    
RIV   no.    8 value from time series:   104.00     for time:  272.0     to  273.0    
RIV   no.    9 value from time series:   113.50     for time:  272.0     to  273.0    
RIV   no.   10 value from time series:   113.50     for time:  272.0     to  273.0    
RIV   no.    1 value from time series:   101.00     for time:  272.0     to  273.0    
RIV   no.    2 value from time series:   101.00     for time:  272.0     to  273.0    
RIV   no.    3 value from time series:   111.50     for time:  272.0     to  273.0    
RIV   no.    4 value from time series:   111.50     for time:  272.0     to  273.0    
RIV   no.    5 value from time series:   115.10     for time:  272.0     to  273.0    
RIV   no.    6 value from time series:   115.10     for time:  272.0     to  273.0    
RIV   no.    7 value from time series:   104.00     for time:  272.0     to  273.0    
RIV   no.    8 value from time series:   104.00     for time:  272.0     to  273.0    
RIV   no.    9 value from time series:   113.50     for time:  272.0     to  273.0    
RIV   no.   10 value from time series:   113.50     for time:  272.0     to  273.0    

 NO OUTPUT CONTROL FOR STRESS PERIOD    7   TIME STEP  121
RIV   no.    1 value from time series:   101.00     for time:  273.0     to  274.0    
RIV   no.    2 value from time series:   101.00     for time:  273.0     to  274.0    
RIV   no.    3 value from time series:   111.50     for time:  273.0     to  274.0    
RIV   no.    4 value from time series:   111.50     for time:  273.0     to  274.0    
RIV   no.    5 value from time series:   115.10     for time:  273.0     to  274.0    
RIV   no.    6 value from time series:   115.10     for time:  273.0     to  274.0    
RIV   no.    7 value from time series:   104.00     for time:  273.0     to  274.0    
RIV   no.    8 value from time series:   104.00     for time:  273.0     to  274.0    
RIV   no.    9 value from time series:   113.50     for time:  273.0     to  274.0    
RIV   no.   10 value from time series:   113.50     for time:  273.0     to  274.0    
RIV   no.    1 value from time series:   101.00     for time:  273.0     to  274.0    
RIV   no.    2 value from time series:   101.00     for time:  273.0     to  274.0    
RIV   no.    3 value from time series:   111.50     for time:  273.0     to  274.0    
RIV   no.    4 value from time series:   111.50     for time:  273.0     to  274.0    
RIV   no.    5 value from time series:   115.10     for time:  273.0     to  274.0    
RIV   no.    6 value from time series:   115.10     for time:  273.0     to  274.0    
RIV   no.    7 value from time series:   104.00     for time:  273.0     to  274.0    
RIV   no.    8 value from time series:   104.00     for time:  273.0     to  274.0    
RIV   no.    9 value from time series:   113.50     for time:  273.0     to  274.0    
RIV   no.   10 value from time series:   113.50     for time:  273.0     to  274.0    

 OUTPUT CONTROL FOR STRESS PERIOD    7   TIME STEP  122
    PRINT BUDGET
    PRINT HEAD
    PRINT HEAD FOR ALL LAYERS
    SAVE BUDGET
    SAVE HEAD
    SAVE HEAD FOR ALL LAYERS
 UBDSV1 SAVING          STORAGE ON UNIT   1016 AT TIME STEP    122, STRESS PERIOD      7
 UBDSV1 SAVING FLOW RIGHT FACE  ON UNIT   1016 AT TIME STEP    122, STRESS PERIOD      7
 UBDSV1 SAVING FLOW FRONT FACE  ON UNIT   1016 AT TIME STEP    122, STRESS PERIOD      7
 UBDSV1 SAVING FLOW LOWER FACE  ON UNIT   1016 AT TIME STEP    122, STRESS PERIOD      7
 UBDSV4 SAVING WELLS NEAR RIVER ON UNIT   1016 AT TIME STEP    122, STRESS PERIOD      7
 UBDSV4 SAVING RIVER            ON UNIT   1016 AT TIME STEP    122, STRESS PERIOD      7

 RIVER              PERIOD  7   STEP122
 BOUNDARY      1   LAYER   1   ROW     1   COL    15   RATE    -5264.35    
 BOUNDARY      2   LAYER   1   ROW     2   COL    15   RATE    -6394.21      RIV2
 BOUNDARY      3   LAYER   1   ROW     3   COL    15   RATE    -2651.39      RIV3
 BOUNDARY      4   LAYER   1   ROW     4   COL    15   RATE    -4118.55    
 BOUNDARY      5   LAYER   1   ROW     5   COL    15   RATE    -2750.97    
 BOUNDARY      6   LAYER   1   ROW     6   COL    15   RATE    -2096.74    
 BOUNDARY      7   LAYER   1   ROW     7   COL    15   RATE    -6595.83      RIVX
 BOUNDARY      8   LAYER   1   ROW     8   COL    15   RATE    -6449.76      RIVX
 BOUNDARY      9   LAYER   1   ROW     9   COL    15   RATE    -2653.67      RIVX
 BOUNDARY     10   LAYER   1   ROW    10   COL    15   RATE    -3564.83    

 GHB LAKES          PERIOD  7   STEP122
 BOUNDARY      1   LAYER   1   ROW     3   COL     1   RATE    -15760.5    
 BOUNDARY      2   LAYER   1   ROW     7   COL     1   RATE    -2838.43      GHB2_UPPER
 BOUNDARY      3   LAYER   1   ROW     7   COL     1   RATE    -13592.6      GHB2_LOWER
 UBDSV4 SAVING RECHARGE         ON UNIT   1016 AT TIME STEP    122, STRESS PERIOD      7

 RECHARGE           PERIOD  7   STEP122
 BOUNDARY      1   LAYER   1   ROW     1   COL     1   RATE     680.208    
 BOUNDARY      2   LAYER   1   ROW     1   COL     2   RATE     680.208    
 BOUNDARY      3   LAYER   1   ROW     1   COL     3   RATE     680.208    
 BOUNDARY      4   LAYER   1   ROW     1   COL     4   RATE     680.208    
 BOUNDARY      5   LAYER   1   ROW     1   COL     5   RATE     680.208    
 BOUNDARY      6   LAYER   1   ROW     1   COL     6   RATE     680.208    
 BOUNDARY      7   LAYER   1   ROW     1   COL     7   RATE     680.208    
 BOUNDARY      8   LAYER   1   ROW     1   COL     8   RATE     680.208    
 BOUNDARY      9   LAYER   1   ROW     1   COL     9   RATE     680.208    
 BOUNDARY     10   LAYER   1   ROW     1   COL    10   RATE     680.208    
 BOUNDARY     11   LAYER   1   ROW     1   COL    11   RATE     680.208    
 BOUNDARY     12   LAYER   1   ROW     1   COL    12   RATE     680.208    
 BOUNDARY     13   LAYER   1   ROW     1   COL    13   RATE     680.208    
 BOUNDARY     14   LAYER   1   ROW     1   COL    14   RATE     680.208    
 BOUNDARY     15   LAYER   1   ROW     1   COL    15   RATE     680.208    
 BOUNDARY     16   LAYER   1   ROW     2   COL     1   RATE     680.208    
 BOUNDARY     17   LAYER   1   ROW     2   COL     2   RATE     680.208    
 BOUNDARY     18   LAYER   1   ROW     2   COL     3   RATE     680.208    
 BOUNDARY     19   LAYER   1   ROW     2   COL     4   RATE     680.208    
 BOUNDARY     20   LAYER   1   ROW     2   COL     5   RATE     680.208    
 BOUNDARY     21   LAYER   1   ROW     2   COL     6   RATE     680.208    
 BOUNDARY     22   LAYER   1   ROW     2   COL     7   RATE     680.208    
 BOUNDARY     23   LAYER   1   ROW     2   COL     8   RATE     680.208    
 BOUNDARY     24   LAYER   1   ROW     2   COL     9   RATE     680.208    
 BOUNDARY     25   LAYER   1   ROW     2   COL    10   RATE     680.208    
 BOUNDARY     26   LAYER   1   ROW     2   COL    11   RATE     680.208    
 BOUNDARY     27   LAYER   1   ROW     2   COL    12   RATE     680.208    
 BOUNDARY     28   LAYER   1   ROW     2   COL    13   RATE     680.208    
 BOUNDARY     29   LAYER   1   ROW     2   COL    14   RATE     680.208    
 BOUNDARY     30   LAYER   1   ROW     2   COL    15   RATE     680.208    
 BOUNDARY     31   LAYER   1   ROW     3   COL     1   RATE     680.208    
 BOUNDARY     32   LAYER   1   ROW     3   COL     2   RATE     680.208    
 BOUNDARY     33   LAYER   1   ROW     3   COL     3   RATE     680.208    
 BOUNDARY     34   LAYER   1   ROW     3   COL     4   RATE     680.208    
 BOUNDARY     35   LAYER   1   ROW     3   COL     5   RATE     680.208    
 BOUNDARY     36   LAYER   1   ROW     3   COL     6   RATE     680.208    
 BOUNDARY     37   LAYER   1   ROW     3   COL     7   RATE     680.208    
 BOUNDARY     38   LAYER   1   ROW     3   COL     8   RATE     680.208    
 BOUNDARY     39   LAYER   1   ROW     3   COL     9   RATE     680.208    
 BOUNDARY     40   LAYER   1   ROW     3   COL    10   RATE     680.208    
 BOUNDARY     41   LAYER   1   ROW     3   COL    11   RATE     680.208    
 BOUNDARY     42   LAYER   1   ROW     3   COL    12   RATE     680.208    
 BOUNDARY     43   LAYER   1   ROW     3   COL    13   RATE     680.208    
 BOUNDARY     44   LAYER   1   ROW     3   COL    14   RATE     680.208    
 BOUNDARY     45   LAYER   1   ROW     3   COL    15   RATE     680.208    
 BOUNDARY     46   LAYER   1   ROW     4   COL     1   RATE     680.208    
 BOUNDARY     47   LAYER   1   ROW     4   COL     2   RATE     680.208    
 BOUNDARY     48   LAYER   1   ROW     4   COL     3   RATE     680.208    
 BOUNDARY     49   LAYER   1   ROW     4   COL     4   RATE     680.208    
 BOUNDARY     50   LAYER   1   ROW     4   COL     5   RATE     680.208    
 BOUNDARY     51   LAYER   1   ROW     4   COL     6   RATE     680.208    
 BOUNDARY     52   LAYER   1   ROW     4   COL     7   RATE     680.208    
 BOUNDARY     53   LAYER   1   ROW     4   COL     8   RATE     680.208    
 BOUNDARY     54   LAYER   1   ROW     4   COL     9   RATE     680.208    
 BOUNDARY     55   LAYER   1   ROW     4   COL    10   RATE     680.208    
 BOUNDARY     56   LAYER   1   ROW     4   COL    11   RATE     680.208    
 BOUNDARY     57   LAYER   1   ROW     4   COL    12   RATE     680.208    
 BOUNDARY     58   LAYER   1   ROW     4   COL    13   RATE     680.208    
 BOUNDARY     59   LAYER   1   ROW     4   COL    14   RATE     680.208    
 BOUNDARY     60   LAYER   1   ROW     4   COL    15   RATE     680.208    
 BOUNDARY     61   LAYER   1   ROW     5   COL     1   RATE     680.208    
 BOUNDARY     62   LAYER   1   ROW     5   COL     2   RATE     680.208    
 BOUNDARY     63   LAYER   1   ROW     5   COL     3   RATE     680.208    
 BOUNDARY     64   LAYER   1   ROW     5   COL     4   RATE     680.208    
 BOUNDARY     65   LAYER   1   ROW     5   COL     5   RATE     680.208    
 BOUNDARY     66   LAYER   1   ROW     5   COL     6   RATE     680.208    
 BOUNDARY     67   LAYER   1   ROW     5   COL     7   RATE     680.208    
 BOUNDARY     68   LAYER   1   ROW     5   COL     8   RATE     680.208    
 BOUNDARY     69   LAYER   1   ROW     5   COL     9   RATE     680.208    
 BOUNDARY     70   LAYER   1   ROW     5   COL    10   RATE     680.208    
 BOUNDARY     71   LAYER   1   ROW     5   COL    11   RATE     680.208    
 BOUNDARY     72   LAYER   1   ROW     5   COL    12   RATE     680.208    
 BOUNDARY     73   LAYER   1   ROW     5   COL    13   RATE     680.208    
 BOUNDARY     74   LAYER   1   ROW     5   COL    14   RATE     680.208    
 BOUNDARY     75   LAYER   1   ROW     5   COL    15   RATE     680.208    
 BOUNDARY     76   LAYER   1   ROW     6   COL     1   RATE     680.208    
 BOUNDARY     77   LAYER   1   ROW     6   COL     2   RATE     680.208    
 BOUNDARY     78   LAYER   1   ROW     6   COL     3   RATE     680.208    
 BOUNDARY     79   LAYER   1   ROW     6   COL     4   RATE     680.208    
 BOUNDARY     80   LAYER   1   ROW     6   COL     5   RATE     680.208    
 BOUNDARY     81   LAYER   1   ROW     6   COL     6   RATE     680.208    
 BOUNDARY     82   LAYER   1   ROW     6   COL     7   RATE     680.208    
 BOUNDARY     83   LAYER   1   ROW     6   COL     8   RATE     680.208    
 BOUNDARY     84   LAYER   1   ROW     6   COL     9   RATE     680.208    
 BOUNDARY     85   LAYER   1   ROW     6   COL    10   RATE     680.208    
 BOUNDARY     86   LAYER   1   ROW     6   COL    11   RATE     680.208    
 BOUNDARY     87   LAYER   1   ROW     6   COL    12   RATE     680.208    
 BOUNDARY     88   LAYER   1   ROW     6   COL    13   RATE     680.208    
 BOUNDARY     89   LAYER   1   ROW     6   COL    14   RATE     680.208    
 BOUNDARY     90   LAYER   1   ROW     6   COL    15   RATE     680.208    
 BOUNDARY     91   LAYER   1   ROW     7   COL     1   RATE     680.208    
 BOUNDARY     92   LAYER   1   ROW     7   COL     2   RATE     680.208    
 BOUNDARY     93   LAYER   1   ROW     7   COL     3   RATE     680.208    
 BOUNDARY     94   LAYER   1   ROW     7   COL     4   RATE     680.208    
 BOUNDARY     95   LAYER   1   ROW     7   COL     5   RATE     680.208    
 BOUNDARY     96   LAYER   1   ROW     7   COL     6   RATE     680.208    
 BOUNDARY     97   LAYER   1   ROW     7   COL     7   RATE     680.208    
 BOUNDARY     98   LAYER   1   ROW     7   COL     8   RATE     680.208    
 BOUNDARY     99   LAYER   1   ROW     7   COL     9   RATE     680.208    
 BOUNDARY    100   LAYER   1   ROW     7   COL    10   RATE     680.208    
 BOUNDARY    101   LAYER   1   ROW     7   COL    11   RATE     680.208    
 BOUNDARY    102   LAYER   1   ROW     7   COL    12   RATE     680.208    
 BOUNDARY    103   LAYER   1   ROW     7   COL    13   RATE     680.208    
 BOUNDARY    104   LAYER   1   ROW     7   COL    14   RATE     680.208    
 BOUNDARY    105   LAYER   1   ROW     7   COL    15   RATE     680.208    
 BOUNDARY    106   LAYER   1   ROW     8   COL     1   RATE     680.208    
 BOUNDARY    107   LAYER   1   ROW     8   COL     2   RATE     680.208    
 BOUNDARY    108   LAYER   1   ROW     8   COL     3   RATE     680.208    
 BOUNDARY    109   LAYER   1   ROW     8   COL     4   RATE     680.208    
 BOUNDARY    110   LAYER   1   ROW     8   COL     5   RATE     680.208    
 BOUNDARY    111   LAYER   1   ROW     8   COL     6   RATE     680.208    
 BOUNDARY    112   LAYER   1   ROW     8   COL     7   RATE     680.208    
 BOUNDARY    113   LAYER   1   ROW     8   COL     8   RATE     680.208    
 BOUNDARY    114   LAYER   1   ROW     8   COL     9   RATE     680.208    
 BOUNDARY    115   LAYER   1   ROW     8   COL    10   RATE     680.208    
 BOUNDARY    116   LAYER   1   ROW     8   COL    11   RATE     680.208    
 BOUNDARY    117   LAYER   1   ROW     8   COL    12   RATE     680.208    
 BOUNDARY    118   LAYER   1   ROW     8   COL    13   RATE     680.208    
 BOUNDARY    119   LAYER   1   ROW     8   COL    14   RATE     680.208    
 BOUNDARY    120   LAYER   1   ROW     8   COL    15   RATE     680.208    
 BOUNDARY    121   LAYER   1   ROW     9   COL     1   RATE     680.208    
 BOUNDARY    122   LAYER   1   ROW     9   COL     2   RATE     680.208    
 BOUNDARY    123   LAYER   1   ROW     9   COL     3   RATE     680.208    
 BOUNDARY    124   LAYER   1   ROW     9   COL     4   RATE     680.208    
 BOUNDARY    125   LAYER   1   ROW     9   COL     5   RATE     680.208    
 BOUNDARY    126   LAYER   1   ROW     9   COL     6   RATE     680.208    
 BOUNDARY    127   LAYER   1   ROW     9   COL     7   RATE     680.208    
 BOUNDARY    128   LAYER   1   ROW     9   COL     8   RATE     680.208    
 BOUNDARY    129   LAYER   1   ROW     9   COL     9   RATE     680.208    
 BOUNDARY    130   LAYER   1   ROW     9   COL    10   RATE     680.208    
 BOUNDARY    131   LAYER   1   ROW     9   COL    11   RATE     680.208    
 BOUNDARY    132   LAYER   1   ROW     9   COL    12   RATE     680.208    
 BOUNDARY    133   LAYER   1   ROW     9   COL    13   RATE     680.208    
 BOUNDARY    134   LAYER   1   ROW     9   COL    14   RATE     680.208    
 BOUNDARY    135   LAYER   1   ROW     9   COL    15   RATE     680.208    
 BOUNDARY    136   LAYER   1   ROW    10   COL     1   RATE     680.208    
 BOUNDARY    137   LAYER   1   ROW    10   COL     2   RATE     680.208    
 BOUNDARY    138   LAYER   1   ROW    10   COL     3   RATE     680.208    
 BOUNDARY    139   LAYER   1   ROW    10   COL     4   RATE     680.208    
 BOUNDARY    140   LAYER   1   ROW    10   COL     5   RATE     680.208    
 BOUNDARY    141   LAYER   1   ROW    10   COL     6   RATE     680.208    
 BOUNDARY    142   LAYER   1   ROW    10   COL     7   RATE     680.208    
 BOUNDARY    143   LAYER   1   ROW    10   COL     8   RATE     680.208    
 BOUNDARY    144   LAYER   1   ROW    10   COL     9   RATE     680.208    
 BOUNDARY    145   LAYER   1   ROW    10   COL    10   RATE     680.208    
 BOUNDARY    146   LAYER   1   ROW    10   COL    11   RATE     680.208    
 BOUNDARY    147   LAYER   1   ROW    10   COL    12   RATE     680.208    
 BOUNDARY    148   LAYER   1   ROW    10   COL    13   RATE     680.208    
 BOUNDARY    149   LAYER   1   ROW    10   COL    14   RATE     680.208    
 BOUNDARY    150   LAYER   1   ROW    10   COL    15   RATE     680.208    
 UBDSV4 SAVING ET SEGS          ON UNIT   1016 AT TIME STEP    122, STRESS PERIOD      7

 ET SEGS            PERIOD  7   STEP122
 BOUNDARY      1   LAYER   1   ROW     1   COL     1   RATE    -6.76009    
 BOUNDARY      2   LAYER   1   ROW     1   COL     2   RATE    -22.3357    
 BOUNDARY      3   LAYER   1   ROW     1   COL     3   RATE    -102.667    
 BOUNDARY      4   LAYER   1   ROW     1   COL     4   RATE    -102.667    
 BOUNDARY      5   LAYER   1   ROW     1   COL     5   RATE    -102.667    
 BOUNDARY      6   LAYER   1   ROW     1   COL     6   RATE    -102.667    
 BOUNDARY      7   LAYER   1   ROW     1   COL     7   RATE    -102.667    
 BOUNDARY      8   LAYER   1   ROW     1   COL     8   RATE    -102.667    
 BOUNDARY      9   LAYER   1   ROW     1   COL     9   RATE    -102.667    
 BOUNDARY     10   LAYER   1   ROW     1   COL    10   RATE    -102.667    
 BOUNDARY     11   LAYER   1   ROW     1   COL    11   RATE    -102.667    
 BOUNDARY     12   LAYER   1   ROW     1   COL    12   RATE    -43.4780    
 BOUNDARY     13   LAYER   1   ROW     1   COL    13   RATE    -3.60388    
 BOUNDARY     14   LAYER   1   ROW     1   COL    14   RATE     0.00000    
 BOUNDARY     15   LAYER   1   ROW     1   COL    15   RATE     0.00000    
 BOUNDARY     16   LAYER   1   ROW     2   COL     1   RATE     0.00000    
 BOUNDARY     17   LAYER   1   ROW     2   COL     2   RATE    -9.04870    
 BOUNDARY     18   LAYER   1   ROW     2   COL     3   RATE    -101.583    
 BOUNDARY     19   LAYER   1   ROW     2   COL     4   RATE    -102.667    
 BOUNDARY     20   LAYER   1   ROW     2   COL     5   RATE    -102.667    
 BOUNDARY     21   LAYER   1   ROW     2   COL     6   RATE    -102.667    
 BOUNDARY     22   LAYER   1   ROW     2   COL     7   RATE    -102.667    
 BOUNDARY     23   LAYER   1   ROW     2   COL     8   RATE    -102.667    
 BOUNDARY     24   LAYER   1   ROW     2   COL     9   RATE    -102.667    
 BOUNDARY     25   LAYER   1   ROW     2   COL    10   RATE    -102.667    
 BOUNDARY     26   LAYER   1   ROW     2   COL    11   RATE    -102.667    
 BOUNDARY     27   LAYER   1   ROW     2   COL    12   RATE    -52.3593    
 BOUNDARY     28   LAYER   1   ROW     2   COL    13   RATE    -4.59600    
 BOUNDARY     29   LAYER   1   ROW     2   COL    14   RATE     0.00000    
 BOUNDARY     30   LAYER   1   ROW     2   COL    15   RATE     0.00000    
 BOUNDARY     31   LAYER   1   ROW     3   COL     1   RATE     0.00000    
 BOUNDARY     32   LAYER   1   ROW     3   COL     2   RATE    -1.63006    
 BOUNDARY     33   LAYER   1   ROW     3   COL     3   RATE    -68.5174    
 BOUNDARY     34   LAYER   1   ROW     3   COL     4   RATE    -102.667    
 BOUNDARY     35   LAYER   1   ROW     3   COL     5   RATE    -102.667    
 BOUNDARY     36   LAYER   1   ROW     3   COL     6   RATE    -102.667    
 BOUNDARY     37   LAYER   1   ROW     3   COL     7   RATE    -102.667    
 BOUNDARY     38   LAYER   1   ROW     3   COL     8   RATE    -102.667    
 BOUNDARY     39   LAYER   1   ROW     3   COL     9   RATE    -102.667    
 BOUNDARY     40   LAYER   1   ROW     3   COL    10   RATE    -102.667    
 BOUNDARY     41   LAYER   1   ROW     3   COL    11   RATE    -102.667    
 BOUNDARY     42   LAYER   1   ROW     3   COL    12   RATE    -67.2784    
 BOUNDARY     43   LAYER   1   ROW     3   COL    13   RATE    -6.39801    
 BOUNDARY     44   LAYER   1   ROW     3   COL    14   RATE     0.00000    
 BOUNDARY     45   LAYER   1   ROW     3   COL    15   RATE     0.00000    
 BOUNDARY     46   LAYER   1   ROW     4   COL     1   RATE     0.00000    
 BOUNDARY     47   LAYER   1   ROW     4   COL     2   RATE    -7.44637    
 BOUNDARY     48   LAYER   1   ROW     4   COL     3   RATE    -89.9118    
 BOUNDARY     49   LAYER   1   ROW     4   COL     4   RATE    -102.667    
 BOUNDARY     50   LAYER   1   ROW     4   COL     5   RATE    -102.667    
 BOUNDARY     51   LAYER   1   ROW     4   COL     6   RATE    -102.667    
 BOUNDARY     52   LAYER   1   ROW     4   COL     7   RATE    -102.667    
 BOUNDARY     53   LAYER   1   ROW     4   COL     8   RATE    -102.667    
 BOUNDARY     54   LAYER   1   ROW     4   COL     9   RATE    -102.667    
 BOUNDARY     55   LAYER   1   ROW     4   COL    10   RATE    -102.667    
 BOUNDARY     56   LAYER   1   ROW     4   COL    11   RATE    -102.667    
 BOUNDARY     57   LAYER   1   ROW     4   COL    12   RATE    -81.3068    
 BOUNDARY     58   LAYER   1   ROW     4   COL    13   RATE    -7.84439    
 BOUNDARY     59   LAYER   1   ROW     4   COL    14   RATE     0.00000    
 BOUNDARY     60   LAYER   1   ROW     4   COL    15   RATE     0.00000    
 BOUNDARY     61   LAYER   1   ROW     5   COL     1   RATE   -0.760385    
 BOUNDARY     62   LAYER   1   ROW     5   COL     2   RATE    -11.4057    
 BOUNDARY     63   LAYER   1   ROW     5   COL     3   RATE    -102.667    
 BOUNDARY     64   LAYER   1   ROW     5   COL     4   RATE    -102.667    
 BOUNDARY     65   LAYER   1   ROW     5   COL     5   RATE    -102.667    
 BOUNDARY     66   LAYER   1   ROW     5   COL     6   RATE    -102.667    
 BOUNDARY     67   LAYER   1   ROW     5   COL     7   RATE    -102.667    
 BOUNDARY     68   LAYER   1   ROW     5   COL     8   RATE    -102.667    
 BOUNDARY     69   LAYER   1   ROW     5   COL     9   RATE    -102.667    
 BOUNDARY     70   LAYER   1   ROW     5   COL    10   RATE    -102.667    
 BOUNDARY     71   LAYER   1   ROW     5   COL    11   RATE    -102.667    
 BOUNDARY     72   LAYER   1   ROW     5   COL    12   RATE    -90.8608    
 BOUNDARY     73   LAYER   1   ROW     5   COL    13   RATE    -8.71451    
 BOUNDARY     74   LAYER   1   ROW     5   COL    14   RATE     0.00000    
 BOUNDARY     75   LAYER   1   ROW     5   COL    15   RATE     0.00000    
 BOUNDARY     76   LAYER   1   ROW     6   COL     1   RATE     0.00000    
 BOUNDARY     77   LAYER   1   ROW     6   COL     2   RATE    -8.95847    
 BOUNDARY     78   LAYER   1   ROW     6   COL     3   RATE    -102.667    
 BOUNDARY     79   LAYER   1   ROW     6   COL     4   RATE    -102.667    
 BOUNDARY     80   LAYER   1   ROW     6   COL     5   RATE    -102.667    
 BOUNDARY     81   LAYER   1   ROW     6   COL     6   RATE    -102.667    
 BOUNDARY     82   LAYER   1   ROW     6   COL     7   RATE    -102.667    
 BOUNDARY     83   LAYER   1   ROW     6   COL     8   RATE    -102.667    
 BOUNDARY     84   LAYER   1   ROW     6   COL     9   RATE    -102.667    
 BOUNDARY     85   LAYER   1   ROW     6   COL    10   RATE    -102.667    
 BOUNDARY     86   LAYER   1   ROW     6   COL    11   RATE    -102.667    
 BOUNDARY     87   LAYER   1   ROW     6   COL    12   RATE    -94.0700    
 BOUNDARY     88   LAYER   1   ROW     6   COL    13   RATE    -8.65729    
 BOUNDARY     89   LAYER   1   ROW     6   COL    14   RATE     0.00000    
 BOUNDARY     90   LAYER   1   ROW     6   COL    15   RATE     0.00000    
 BOUNDARY     91   LAYER   1   ROW     7   COL     1   RATE     0.00000    
 BOUNDARY     92   LAYER   1   ROW     7   COL     2   RATE    -5.00197    
 BOUNDARY     93   LAYER   1   ROW     7   COL     3   RATE    -102.667    
 BOUNDARY     94   LAYER   1   ROW     7   COL     4   RATE    -102.667    
 BOUNDARY     95   LAYER   1   ROW     7   COL     5   RATE    -102.667    
 BOUNDARY     96   LAYER   1   ROW     7   COL     6   RATE    -102.667    
 BOUNDARY     97   LAYER   1   ROW     7   COL     7   RATE    -102.667    
 BOUNDARY     98   LAYER   1   ROW     7   COL     8   RATE    -102.667    
 BOUNDARY     99   LAYER   1   ROW     7   COL     9   RATE    -102.667    
 BOUNDARY    100   LAYER   1   ROW     7   COL    10   RATE    -102.667    
 BOUNDARY    101   LAYER   1   ROW     7   COL    11   RATE    -102.667    
 BOUNDARY    102   LAYER   1   ROW     7   COL    12   RATE    -93.5018    
 BOUNDARY    103   LAYER   1   ROW     7   COL    13   RATE    -7.94885    
 BOUNDARY    104   LAYER   1   ROW     7   COL    14   RATE     0.00000    
 BOUNDARY    105   LAYER   1   ROW     7   COL    15   RATE     0.00000    
 BOUNDARY    106   LAYER   1   ROW     8   COL     1   RATE    -2.16409    
 BOUNDARY    107   LAYER   1   ROW     8   COL     2   RATE    -26.1348    
 BOUNDARY    108   LAYER   1   ROW     8   COL     3   RATE    -102.667    
 BOUNDARY    109   LAYER   1   ROW     8   COL     4   RATE    -102.667    
 BOUNDARY    110   LAYER   1   ROW     8   COL     5   RATE    -102.667    
 BOUNDARY    111   LAYER   1   ROW     8   COL     6   RATE    -102.667    
 BOUNDARY    112   LAYER   1   ROW     8   COL     7   RATE    -102.667    
 BOUNDARY    113   LAYER   1   ROW     8   COL     8   RATE    -102.667    
 BOUNDARY    114   LAYER   1   ROW     8   COL     9   RATE    -102.667    
 BOUNDARY    115   LAYER   1   ROW     8   COL    10   RATE    -102.667    
 BOUNDARY    116   LAYER   1   ROW     8   COL    11   RATE    -102.667    
 BOUNDARY    117   LAYER   1   ROW     8   COL    12   RATE    -96.0658    
 BOUNDARY    118   LAYER   1   ROW     8   COL    13   RATE    -8.01275    
 BOUNDARY    119   LAYER   1   ROW     8   COL    14   RATE     0.00000    
 BOUNDARY    120   LAYER   1   ROW     8   COL    15   RATE     0.00000    
 BOUNDARY    121   LAYER   1   ROW     9   COL     1   RATE    -48.1812    
 BOUNDARY    122   LAYER   1   ROW     9   COL     2   RATE    -102.667    
 BOUNDARY    123   LAYER   1   ROW     9   COL     3   RATE    -102.667    
 BOUNDARY    124   LAYER   1   ROW     9   COL     4   RATE    -102.667    
 BOUNDARY    125   LAYER   1   ROW     9   COL     5   RATE    -102.667    
 BOUNDARY    126   LAYER   1   ROW     9   COL     6   RATE    -102.667    
 BOUNDARY    127   LAYER   1   ROW     9   COL     7   RATE    -102.667    
 BOUNDARY    128   LAYER   1   ROW     9   COL     8   RATE    -102.667    
 BOUNDARY    129   LAYER   1   ROW     9   COL     9   RATE    -102.667    
 BOUNDARY    130   LAYER   1   ROW     9   COL    10   RATE    -102.667    
 BOUNDARY    131   LAYER   1   ROW     9   COL    11   RATE    -102.667    
 BOUNDARY    132   LAYER   1   ROW     9   COL    12   RATE    -102.376    
 BOUNDARY    133   LAYER   1   ROW     9   COL    13   RATE    -8.91406    
 BOUNDARY    134   LAYER   1   ROW     9   COL    14   RATE     0.00000    
 BOUNDARY    135   LAYER   1   ROW     9   COL    15   RATE     0.00000    
 BOUNDARY    136   LAYER   1   ROW    10   COL     1   RATE    -102.667    
 BOUNDARY    137   LAYER   1   ROW    10   COL     2   RATE    -102.667    
 BOUNDARY    138   LAYER   1   ROW    10   COL     3   RATE    -102.667    
 BOUNDARY    139   LAYER   1   ROW    10   COL     4   RATE    -102.667    
 BOUNDARY    140   LAYER   1   ROW    10   COL     5   RATE    -102.667    
 BOUNDARY    141   LAYER   1   ROW    10   COL     6   RATE    -102.667    
 BOUNDARY    142   LAYER   1   ROW    10   COL     7   RATE    -102.667    
 BOUNDARY    143   LAYER   1   ROW    10   COL     8   RATE    -102.667    
 BOUNDARY    144   LAYER   1   ROW    10   COL     9   RATE    -102.667    
 BOUNDARY    145   LAYER   1   ROW    10   COL    10   RATE    -102.667    
 BOUNDARY    146   LAYER   1   ROW    10   COL    11   RATE    -102.667    
 BOUNDARY    147   LAYER   1   ROW    10   COL    12   RATE    -102.667    
 BOUNDARY    148   LAYER   1   ROW    10   COL    13   RATE    -9.48936    
 BOUNDARY    149   LAYER   1   ROW    10   COL    14   RATE     0.00000    
 BOUNDARY    150   LAYER   1   ROW    10   COL    15   RATE     0.00000    
1
  HEAD             IN LAYER   1 AT END OF TIME STEP 122 IN STRESS PERIOD    7
  ---------------------------------------------------------------------------

           1          2          3          4          5          6          7          8
 ........................................................................................
   1   133.29225  136.76334  140.81166  144.38123  147.08516  148.84040  149.64190  149.49073
   2   127.72356  134.40683  139.96985  144.10321  147.00955  148.83914  149.67082  149.53552
   3   110.48601  130.79386  139.04965  143.85753  146.97428  148.88081  149.74856  149.62977
   4   126.41942  133.62648  139.64504  144.05014  147.10520  149.02103  149.93221  149.80782
   5   130.37032  135.16641  140.24263  144.37594  147.35819  149.30088  150.42068  150.28223
   6   127.09502  134.36289  140.33122  144.68092  147.70366  149.70393  150.84889  150.65696
   7   112.02311  132.43602  140.51794  145.16703  148.21556  150.36228  151.30307  151.00021
   8   131.05394  137.31839  142.40862  146.15004  148.87846  150.89155  151.69648  151.29516
   9   138.48371  141.11278  144.28376  147.14394  149.48994  151.30733  151.99426  151.51592
  10   141.34823  142.98228  145.34095  147.73587  149.85033  151.54088  152.15677  151.63518
1
  HEAD             IN LAYER   1 AT END OF TIME STEP 122 IN STRESS PERIOD    7
  ---------------------------------------------------------------------------

           9         10         11         12         13         14         15
 .............................................................................
   1   148.36998  146.22962  142.96304  138.35282  131.75514  122.00069  106.25909
   2   148.43109  146.31835  143.10493  138.59998  132.23831  122.89319  107.38145
   3   148.54446  146.47242  143.34266  139.01517  133.11592  125.01342  114.14346
   4   148.70168  146.65483  143.59390  139.40557  133.82032  126.24130  115.60214
   5   148.92321  146.83951  143.80033  139.67145  134.24408  127.05731  117.83728
   6   149.18251  147.01628  143.93866  139.76076  134.21621  126.73577  117.18423
   7   149.43579  147.17957  144.03386  139.74495  133.87119  125.19816  110.54998
   8   149.66124  147.33199  144.13970  139.81630  133.90231  125.14769  110.39857
   9   149.83444  147.45980  144.25739  139.99192  134.34126  126.56736  116.13000
  10   149.92940  147.53407  144.33438  140.11812  134.62144  127.18383  117.02953
1
  HEAD             IN LAYER   2 AT END OF TIME STEP 122 IN STRESS PERIOD    7
  ---------------------------------------------------------------------------

           1          2          3          4          5          6          7          8
 ........................................................................................
   1   134.14495  136.45952  139.67639  142.79862  145.31470  147.00324  147.77560  147.59178
   2   132.26673  135.41646  139.21640  142.62820  145.27310  147.01788  147.81613  147.64638
   3   129.51957  134.23867  138.78055  142.50192  145.27978  147.08591  147.91551  147.76151
   4   131.57835  134.97066  139.04324  142.65637  145.42802  147.25172  148.10163  147.94986
   5   132.83307  135.70494  139.47749  142.97113  145.70390  147.52723  148.39607  148.22663
   6   132.45654  135.81873  139.82178  143.36112  146.08195  147.89290  148.73921  148.52613
   7   131.40784  136.03086  140.38945  143.92753  146.58017  148.34092  149.10936  148.82491
   8   135.43787  138.31659  141.72853  144.77830  147.17419  148.79218  149.45633  149.09315
   9   138.79220  140.58127  143.10589  145.61628  147.71505  149.16746  149.72949  149.29838
  10   140.52457  141.85918  143.92557  146.12154  148.03526  149.38176  149.88091  149.41034
1
  HEAD             IN LAYER   2 AT END OF TIME STEP 122 IN STRESS PERIOD    7
  ---------------------------------------------------------------------------

           9         10         11         12         13         14         15
 .............................................................................
   1   146.42137  144.22529  140.95031  136.54271  131.01045  124.72041  119.15568
   2   146.48966  144.31776  141.09032  136.77322  131.40353  125.35930  120.04131
   3   146.61981  144.48148  141.32659  137.15391  132.06139  126.50929  121.94089
   4   146.80278  144.68297  141.58683  137.53487  132.65915  127.42771  123.17279
   5   147.02937  144.89259  141.81406  137.81551  133.03965  127.96696  123.93704
   6   147.27069  145.08937  141.98350  137.95705  133.12248  127.92239  123.72322
   7   147.50444  145.26678  142.11176  138.01669  133.03180  127.47441  122.58172
   8   147.71160  145.42486  142.23512  138.11411  133.10189  127.50419  122.56541
   9   147.87021  145.55193  142.35372  138.26386  133.36534  128.05770  123.69583
  10   147.95708  145.62437  142.42843  138.37058  133.55813  128.41506  124.24940

 HEAD WILL BE SAVED ON UNIT 1017 AT END OF TIME STEP  122, STRESS PERIOD    7
1
  VOLUME BUDGET FOR ENTIRE MODEL AT END OF TIME STEP  122, STRESS PERIOD   7
  ------------------------------------------------------------------------------

     CUMULATIVE VOLUME      L**3       RATES FOR THIS TIME STEP      L**3/T
     ------------------                 ------------------------

           IN:                                      IN:
           ---                                      ---
             STORAGE =       62812.9084               STORAGE =         298.0625
    WELLS NEAR RIVER =           0.0000      WELLS NEAR RIVER =           0.0000
               RIVER =           0.0000                 RIVER =           0.0000
           GHB LAKES =           0.0000             GHB LAKES =           0.0000
            RECHARGE =    30644375.0000              RECHARGE =      102031.2500
             ET SEGS =           0.0000               ET SEGS =           0.0000

            TOTAL IN =    30707187.9084              TOTAL IN =      102329.3125

          OUT:                                     OUT:
          ----                                     ----
             STORAGE =     8314953.4417               STORAGE =       17049.5017
    WELLS NEAR RIVER =        5570.0000      WELLS NEAR RIVER =           0.0000
               RIVER =    10967218.2641                 RIVER =       42540.3053
           GHB LAKES =     8441081.7399             GHB LAKES =       32191.5227
            RECHARGE =           0.0000              RECHARGE =           0.0000
             ET SEGS =     2978364.4729               ET SEGS =       10547.9830

           TOTAL OUT =    30707187.9186             TOTAL OUT =      102329.3127

            IN - OUT =      -1.0203E-02              IN - OUT =      -1.8332E-04

 PERCENT DISCREPANCY =          -0.00     PERCENT DISCREPANCY =          -0.00






         TIME SUMMARY AT END OF TIME STEP  122 IN STRESS PERIOD    7
                    SECONDS     MINUTES      HOURS       DAYS        YEARS
                    -----------------------------------------------------------
   TIME STEP LENGTH  86400.      1440.0      24.000     1.00000     2.73785E-03
 STRESS PERIOD TIME 1.05408E+07 1.75680E+05  2928.0      122.00     0.33402    
         TOTAL TIME 2.36736E+07 3.94560E+05  6576.0      274.00     0.75017    
RIV   no.    1 value from time series:   101.00     for time:  274.0     to  275.0    
RIV   no.    2 value from time series:   101.00     for time:  274.0     to  275.0    
RIV   no.    3 value from time series:   111.50     for time:  274.0     to  275.0    
RIV   no.    4 value from time series:   111.50     for time:  274.0     to  275.0    
RIV   no.    5 value from time series:   115.10     for time:  274.0     to  275.0    
RIV   no.    6 value from time series:   115.10     for time:  274.0     to  275.0    
RIV   no.    7 value from time series:   104.00     for time:  274.0     to  275.0    
RIV   no.    8 value from time series:   104.00     for time:  274.0     to  275.0    
RIV   no.    9 value from time series:   113.50     for time:  274.0     to  275.0    
RIV   no.   10 value from time series:   113.50     for time:  274.0     to  275.0    
RIV   no.    1 value from time series:   101.00     for time:  274.0     to  275.0    
RIV   no.    2 value from time series:   101.00     for time:  274.0     to  275.0    
RIV   no.    3 value from time series:   111.50     for time:  274.0     to  275.0    
RIV   no.    4 value from time series:   111.50     for time:  274.0     to  275.0    
RIV   no.    5 value from time series:   115.10     for time:  274.0     to  275.0    
RIV   no.    6 value from time series:   115.10     for time:  274.0     to  275.0    
RIV   no.    7 value from time series:   104.00     for time:  274.0     to  275.0    
RIV   no.    8 value from time series:   104.00     for time:  274.0     to  275.0    
RIV   no.    9 value from time series:   113.50     for time:  274.0     to  275.0    
RIV   no.   10 value from time series:   113.50     for time:  274.0     to  275.0    

 NO OUTPUT CONTROL FOR STRESS PERIOD    7   TIME STEP  123
RIV   no.    1 value from time series:   101.00     for time:  275.0     to  276.0    
RIV   no.    2 value from time series:   101.00     for time:  275.0     to  276.0    
RIV   no.    3 value from time series:   111.50     for time:  275.0     to  276.0    
RIV   no.    4 value from time series:   111.50     for time:  275.0     to  276.0    
RIV   no.    5 value from time series:   115.10     for time:  275.0     to  276.0    
RIV   no.    6 value from time series:   115.10     for time:  275.0     to  276.0    
RIV   no.    7 value from time series:   104.00     for time:  275.0     to  276.0    
RIV   no.    8 value from time series:   104.00     for time:  275.0     to  276.0    
RIV   no.    9 value from time series:   113.50     for time:  275.0     to  276.0    
RIV   no.   10 value from time series:   113.50     for time:  275.0     to  276.0    
RIV   no.    1 value from time series:   101.00     for time:  275.0     to  276.0    
RIV   no.    2 value from time series:   101.00     for time:  275.0     to  276.0    
RIV   no.    3 value from time series:   111.50     for time:  275.0     to  276.0    
RIV   no.    4 value from time series:   111.50     for time:  275.0     to  276.0    
RIV   no.    5 value from time series:   115.10     for time:  275.0     to  276.0    
RIV   no.    6 value from time series:   115.10     for time:  275.0     to  276.0    
RIV   no.    7 value from time series:   104.00     for time:  275.0     to  276.0    
RIV   no.    8 value from time series:   104.00     for time:  275.0     to  276.0    
RIV   no.    9 value from time series:   113.50     for time:  275.0     to  276.0    
RIV   no.   10 value from time series:   113.50     for time:  275.0     to  276.0    

 NO OUTPUT CONTROL FOR STRESS PERIOD    7   TIME STEP  124
RIV   no.    1 value from time series:   101.00     for time:  276.0     to  277.0    
RIV   no.    2 value from time series:   101.00     for time:  276.0     to  277.0    
RIV   no.    3 value from time series:   111.50     for time:  276.0     to  277.0    
RIV   no.    4 value from time series:   111.50     for time:  276.0     to  277.0    
RIV   no.    5 value from time series:   115.10     for time:  276.0     to  277.0    
RIV   no.    6 value from time series:   115.10     for time:  276.0     to  277.0    
RIV   no.    7 value from time series:   104.00     for time:  276.0     to  277.0    
RIV   no.    8 value from time series:   104.00     for time:  276.0     to  277.0    
RIV   no.    9 value from time series:   113.50     for time:  276.0     to  277.0    
RIV   no.   10 value from time series:   113.50     for time:  276.0     to  277.0    
RIV   no.    1 value from time series:   101.00     for time:  276.0     to  277.0    
RIV   no.    2 value from time series:   101.00     for time:  276.0     to  277.0    
RIV   no.    3 value from time series:   111.50     for time:  276.0     to  277.0    
RIV   no.    4 value from time series:   111.50     for time:  276.0     to  277.0    
RIV   no.    5 value from time series:   115.10     for time:  276.0     to  277.0    
RIV   no.    6 value from time series:   115.10     for time:  276.0     to  277.0    
RIV   no.    7 value from time series:   104.00     for time:  276.0     to  277.0    
RIV   no.    8 value from time series:   104.00     for time:  276.0     to  277.0    
RIV   no.    9 value from time series:   113.50     for time:  276.0     to  277.0    
RIV   no.   10 value from time series:   113.50     for time:  276.0     to  277.0    

 NO OUTPUT CONTROL FOR STRESS PERIOD    7   TIME STEP  125
RIV   no.    1 value from time series:   101.00     for time:  277.0     to  278.0    
RIV   no.    2 value from time series:   101.00     for time:  277.0     to  278.0    
RIV   no.    3 value from time series:   111.50     for time:  277.0     to  278.0    
RIV   no.    4 value from time series:   111.50     for time:  277.0     to  278.0    
RIV   no.    5 value from time series:   115.10     for time:  277.0     to  278.0    
RIV   no.    6 value from time series:   115.10     for time:  277.0     to  278.0    
RIV   no.    7 value from time series:   104.00     for time:  277.0     to  278.0    
RIV   no.    8 value from time series:   104.00     for time:  277.0     to  278.0    
RIV   no.    9 value from time series:   113.50     for time:  277.0     to  278.0    
RIV   no.   10 value from time series:   113.50     for time:  277.0     to  278.0    
RIV   no.    1 value from time series:   101.00     for time:  277.0     to  278.0    
RIV   no.    2 value from time series:   101.00     for time:  277.0     to  278.0    
RIV   no.    3 value from time series:   111.50     for time:  277.0     to  278.0    
RIV   no.    4 value from time series:   111.50     for time:  277.0     to  278.0    
RIV   no.    5 value from time series:   115.10     for time:  277.0     to  278.0    
RIV   no.    6 value from time series:   115.10     for time:  277.0     to  278.0    
RIV   no.    7 value from time series:   104.00     for time:  277.0     to  278.0    
RIV   no.    8 value from time series:   104.00     for time:  277.0     to  278.0    
RIV   no.    9 value from time series:   113.50     for time:  277.0     to  278.0    
RIV   no.   10 value from time series:   113.50     for time:  277.0     to  278.0    

 NO OUTPUT CONTROL FOR STRESS PERIOD    7   TIME STEP  126
RIV   no.    1 value from time series:   101.00     for time:  278.0     to  279.0    
RIV   no.    2 value from time series:   101.00     for time:  278.0     to  279.0    
RIV   no.    3 value from time series:   111.50     for time:  278.0     to  279.0    
RIV   no.    4 value from time series:   111.50     for time:  278.0     to  279.0    
RIV   no.    5 value from time series:   115.10     for time:  278.0     to  279.0    
RIV   no.    6 value from time series:   115.10     for time:  278.0     to  279.0    
RIV   no.    7 value from time series:   104.00     for time:  278.0     to  279.0    
RIV   no.    8 value from time series:   104.00     for time:  278.0     to  279.0    
RIV   no.    9 value from time series:   113.50     for time:  278.0     to  279.0    
RIV   no.   10 value from time series:   113.50     for time:  278.0     to  279.0    
RIV   no.    1 value from time series:   101.00     for time:  278.0     to  279.0    
RIV   no.    2 value from time series:   101.00     for time:  278.0     to  279.0    
RIV   no.    3 value from time series:   111.50     for time:  278.0     to  279.0    
RIV   no.    4 value from time series:   111.50     for time:  278.0     to  279.0    
RIV   no.    5 value from time series:   115.10     for time:  278.0     to  279.0    
RIV   no.    6 value from time series:   115.10     for time:  278.0     to  279.0    
RIV   no.    7 value from time series:   104.00     for time:  278.0     to  279.0    
RIV   no.    8 value from time series:   104.00     for time:  278.0     to  279.0    
RIV   no.    9 value from time series:   113.50     for time:  278.0     to  279.0    
RIV   no.   10 value from time series:   113.50     for time:  278.0     to  279.0    

 NO OUTPUT CONTROL FOR STRESS PERIOD    7   TIME STEP  127
RIV   no.    1 value from time series:   101.00     for time:  279.0     to  280.0    
RIV   no.    2 value from time series:   101.00     for time:  279.0     to  280.0    
RIV   no.    3 value from time series:   111.50     for time:  279.0     to  280.0    
RIV   no.    4 value from time series:   111.50     for time:  279.0     to  280.0    
RIV   no.    5 value from time series:   115.10     for time:  279.0     to  280.0    
RIV   no.    6 value from time series:   115.10     for time:  279.0     to  280.0    
RIV   no.    7 value from time series:   104.00     for time:  279.0     to  280.0    
RIV   no.    8 value from time series:   104.00     for time:  279.0     to  280.0    
RIV   no.    9 value from time series:   113.50     for time:  279.0     to  280.0    
RIV   no.   10 value from time series:   113.50     for time:  279.0     to  280.0    
RIV   no.    1 value from time series:   101.00     for time:  279.0     to  280.0    
RIV   no.    2 value from time series:   101.00     for time:  279.0     to  280.0    
RIV   no.    3 value from time series:   111.50     for time:  279.0     to  280.0    
RIV   no.    4 value from time series:   111.50     for time:  279.0     to  280.0    
RIV   no.    5 value from time series:   115.10     for time:  279.0     to  280.0    
RIV   no.    6 value from time series:   115.10     for time:  279.0     to  280.0    
RIV   no.    7 value from time series:   104.00     for time:  279.0     to  280.0    
RIV   no.    8 value from time series:   104.00     for time:  279.0     to  280.0    
RIV   no.    9 value from time series:   113.50     for time:  279.0     to  280.0    
RIV   no.   10 value from time series:   113.50     for time:  279.0     to  280.0    

 NO OUTPUT CONTROL FOR STRESS PERIOD    7   TIME STEP  128
RIV   no.    1 value from time series:   101.00     for time:  280.0     to  281.0    
RIV   no.    2 value from time series:   101.00     for time:  280.0     to  281.0    
RIV   no.    3 value from time series:   111.50     for time:  280.0     to  281.0    
RIV   no.    4 value from time series:   111.50     for time:  280.0     to  281.0    
RIV   no.    5 value from time series:   115.10     for time:  280.0     to  281.0    
RIV   no.    6 value from time series:   115.10     for time:  280.0     to  281.0    
RIV   no.    7 value from time series:   104.00     for time:  280.0     to  281.0    
RIV   no.    8 value from time series:   104.00     for time:  280.0     to  281.0    
RIV   no.    9 value from time series:   113.50     for time:  280.0     to  281.0    
RIV   no.   10 value from time series:   113.50     for time:  280.0     to  281.0    
RIV   no.    1 value from time series:   101.00     for time:  280.0     to  281.0    
RIV   no.    2 value from time series:   101.00     for time:  280.0     to  281.0    
RIV   no.    3 value from time series:   111.50     for time:  280.0     to  281.0    
RIV   no.    4 value from time series:   111.50     for time:  280.0     to  281.0    
RIV   no.    5 value from time series:   115.10     for time:  280.0     to  281.0    
RIV   no.    6 value from time series:   115.10     for time:  280.0     to  281.0    
RIV   no.    7 value from time series:   104.00     for time:  280.0     to  281.0    
RIV   no.    8 value from time series:   104.00     for time:  280.0     to  281.0    
RIV   no.    9 value from time series:   113.50     for time:  280.0     to  281.0    
RIV   no.   10 value from time series:   113.50     for time:  280.0     to  281.0    

 NO OUTPUT CONTROL FOR STRESS PERIOD    7   TIME STEP  129
RIV   no.    1 value from time series:   101.00     for time:  281.0     to  282.0    
RIV   no.    2 value from time series:   101.00     for time:  281.0     to  282.0    
RIV   no.    3 value from time series:   111.50     for time:  281.0     to  282.0    
RIV   no.    4 value from time series:   111.50     for time:  281.0     to  282.0    
RIV   no.    5 value from time series:   115.10     for time:  281.0     to  282.0    
RIV   no.    6 value from time series:   115.10     for time:  281.0     to  282.0    
RIV   no.    7 value from time series:   104.00     for time:  281.0     to  282.0    
RIV   no.    8 value from time series:   104.00     for time:  281.0     to  282.0    
RIV   no.    9 value from time series:   113.50     for time:  281.0     to  282.0    
RIV   no.   10 value from time series:   113.50     for time:  281.0     to  282.0    
RIV   no.    1 value from time series:   101.00     for time:  281.0     to  282.0    
RIV   no.    2 value from time series:   101.00     for time:  281.0     to  282.0    
RIV   no.    3 value from time series:   111.50     for time:  281.0     to  282.0    
RIV   no.    4 value from time series:   111.50     for time:  281.0     to  282.0    
RIV   no.    5 value from time series:   115.10     for time:  281.0     to  282.0    
RIV   no.    6 value from time series:   115.10     for time:  281.0     to  282.0    
RIV   no.    7 value from time series:   104.00     for time:  281.0     to  282.0    
RIV   no.    8 value from time series:   104.00     for time:  281.0     to  282.0    
RIV   no.    9 value from time series:   113.50     for time:  281.0     to  282.0    
RIV   no.   10 value from time series:   113.50     for time:  281.0     to  282.0    

 NO OUTPUT CONTROL FOR STRESS PERIOD    7   TIME STEP  130
RIV   no.    1 value from time series:   101.00     for time:  282.0     to  283.0    
RIV   no.    2 value from time series:   101.00     for time:  282.0     to  283.0    
RIV   no.    3 value from time series:   111.50     for time:  282.0     to  283.0    
RIV   no.    4 value from time series:   111.50     for time:  282.0     to  283.0    
RIV   no.    5 value from time series:   115.10     for time:  282.0     to  283.0    
RIV   no.    6 value from time series:   115.10     for time:  282.0     to  283.0    
RIV   no.    7 value from time series:   104.00     for time:  282.0     to  283.0    
RIV   no.    8 value from time series:   104.00     for time:  282.0     to  283.0    
RIV   no.    9 value from time series:   113.50     for time:  282.0     to  283.0    
RIV   no.   10 value from time series:   113.50     for time:  282.0     to  283.0    
RIV   no.    1 value from time series:   101.00     for time:  282.0     to  283.0    
RIV   no.    2 value from time series:   101.00     for time:  282.0     to  283.0    
RIV   no.    3 value from time series:   111.50     for time:  282.0     to  283.0    
RIV   no.    4 value from time series:   111.50     for time:  282.0     to  283.0    
RIV   no.    5 value from time series:   115.10     for time:  282.0     to  283.0    
RIV   no.    6 value from time series:   115.10     for time:  282.0     to  283.0    
RIV   no.    7 value from time series:   104.00     for time:  282.0     to  283.0    
RIV   no.    8 value from time series:   104.00     for time:  282.0     to  283.0    
RIV   no.    9 value from time series:   113.50     for time:  282.0     to  283.0    
RIV   no.   10 value from time series:   113.50     for time:  282.0     to  283.0    

 NO OUTPUT CONTROL FOR STRESS PERIOD    7   TIME STEP  131
RIV   no.    1 value from time series:   101.00     for time:  283.0     to  284.0    
RIV   no.    2 value from time series:   101.00     for time:  283.0     to  284.0    
RIV   no.    3 value from time series:   111.50     for time:  283.0     to  284.0    
RIV   no.    4 value from time series:   111.50     for time:  283.0     to  284.0    
RIV   no.    5 value from time series:   115.10     for time:  283.0     to  284.0    
RIV   no.    6 value from time series:   115.10     for time:  283.0     to  284.0    
RIV   no.    7 value from time series:   104.00     for time:  283.0     to  284.0    
RIV   no.    8 value from time series:   104.00     for time:  283.0     to  284.0    
RIV   no.    9 value from time series:   113.50     for time:  283.0     to  284.0    
RIV   no.   10 value from time series:   113.50     for time:  283.0     to  284.0    
RIV   no.    1 value from time series:   101.00     for time:  283.0     to  284.0    
RIV   no.    2 value from time series:   101.00     for time:  283.0     to  284.0    
RIV   no.    3 value from time series:   111.50     for time:  283.0     to  284.0    
RIV   no.    4 value from time series:   111.50     for time:  283.0     to  284.0    
RIV   no.    5 value from time series:   115.10     for time:  283.0     to  284.0    
RIV   no.    6 value from time series:   115.10     for time:  283.0     to  284.0    
RIV   no.    7 value from time series:   104.00     for time:  283.0     to  284.0    
RIV   no.    8 value from time series:   104.00     for time:  283.0     to  284.0    
RIV   no.    9 value from time series:   113.50     for time:  283.0     to  284.0    
RIV   no.   10 value from time series:   113.50     for time:  283.0     to  284.0    

 NO OUTPUT CONTROL FOR STRESS PERIOD    7   TIME STEP  132
RIV   no.    1 value from time series:   101.00     for time:  284.0     to  285.0    
RIV   no.    2 value from time series:   101.00     for time:  284.0     to  285.0    
RIV   no.    3 value from time series:   111.50     for time:  284.0     to  285.0    
RIV   no.    4 value from time series:   111.50     for time:  284.0     to  285.0    
RIV   no.    5 value from time series:   115.10     for time:  284.0     to  285.0    
RIV   no.    6 value from time series:   115.10     for time:  284.0     to  285.0    
RIV   no.    7 value from time series:   104.00     for time:  284.0     to  285.0    
RIV   no.    8 value from time series:   104.00     for time:  284.0     to  285.0    
RIV   no.    9 value from time series:   113.50     for time:  284.0     to  285.0    
RIV   no.   10 value from time series:   113.50     for time:  284.0     to  285.0    
RIV   no.    1 value from time series:   101.00     for time:  284.0     to  285.0    
RIV   no.    2 value from time series:   101.00     for time:  284.0     to  285.0    
RIV   no.    3 value from time series:   111.50     for time:  284.0     to  285.0    
RIV   no.    4 value from time series:   111.50     for time:  284.0     to  285.0    
RIV   no.    5 value from time series:   115.10     for time:  284.0     to  285.0    
RIV   no.    6 value from time series:   115.10     for time:  284.0     to  285.0    
RIV   no.    7 value from time series:   104.00     for time:  284.0     to  285.0    
RIV   no.    8 value from time series:   104.00     for time:  284.0     to  285.0    
RIV   no.    9 value from time series:   113.50     for time:  284.0     to  285.0    
RIV   no.   10 value from time series:   113.50     for time:  284.0     to  285.0    

 NO OUTPUT CONTROL FOR STRESS PERIOD    7   TIME STEP  133
RIV   no.    1 value from time series:   101.00     for time:  285.0     to  286.0    
RIV   no.    2 value from time series:   101.00     for time:  285.0     to  286.0    
RIV   no.    3 value from time series:   111.50     for time:  285.0     to  286.0    
RIV   no.    4 value from time series:   111.50     for time:  285.0     to  286.0    
RIV   no.    5 value from time series:   115.10     for time:  285.0     to  286.0    
RIV   no.    6 value from time series:   115.10     for time:  285.0     to  286.0    
RIV   no.    7 value from time series:   104.00     for time:  285.0     to  286.0    
RIV   no.    8 value from time series:   104.00     for time:  285.0     to  286.0    
RIV   no.    9 value from time series:   113.50     for time:  285.0     to  286.0    
RIV   no.   10 value from time series:   113.50     for time:  285.0     to  286.0    
RIV   no.    1 value from time series:   101.00     for time:  285.0     to  286.0    
RIV   no.    2 value from time series:   101.00     for time:  285.0     to  286.0    
RIV   no.    3 value from time series:   111.50     for time:  285.0     to  286.0    
RIV   no.    4 value from time series:   111.50     for time:  285.0     to  286.0    
RIV   no.    5 value from time series:   115.10     for time:  285.0     to  286.0    
RIV   no.    6 value from time series:   115.10     for time:  285.0     to  286.0    
RIV   no.    7 value from time series:   104.00     for time:  285.0     to  286.0    
RIV   no.    8 value from time series:   104.00     for time:  285.0     to  286.0    
RIV   no.    9 value from time series:   113.50     for time:  285.0     to  286.0    
RIV   no.   10 value from time series:   113.50     for time:  285.0     to  286.0    

 NO OUTPUT CONTROL FOR STRESS PERIOD    7   TIME STEP  134
RIV   no.    1 value from time series:   101.00     for time:  286.0     to  287.0    
RIV   no.    2 value from time series:   101.00     for time:  286.0     to  287.0    
RIV   no.    3 value from time series:   111.50     for time:  286.0     to  287.0    
RIV   no.    4 value from time series:   111.50     for time:  286.0     to  287.0    
RIV   no.    5 value from time series:   115.10     for time:  286.0     to  287.0    
RIV   no.    6 value from time series:   115.10     for time:  286.0     to  287.0    
RIV   no.    7 value from time series:   104.00     for time:  286.0     to  287.0    
RIV   no.    8 value from time series:   104.00     for time:  286.0     to  287.0    
RIV   no.    9 value from time series:   113.50     for time:  286.0     to  287.0    
RIV   no.   10 value from time series:   113.50     for time:  286.0     to  287.0    
RIV   no.    1 value from time series:   101.00     for time:  286.0     to  287.0    
RIV   no.    2 value from time series:   101.00     for time:  286.0     to  287.0    
RIV   no.    3 value from time series:   111.50     for time:  286.0     to  287.0    
RIV   no.    4 value from time series:   111.50     for time:  286.0     to  287.0    
RIV   no.    5 value from time series:   115.10     for time:  286.0     to  287.0    
RIV   no.    6 value from time series:   115.10     for time:  286.0     to  287.0    
RIV   no.    7 value from time series:   104.00     for time:  286.0     to  287.0    
RIV   no.    8 value from time series:   104.00     for time:  286.0     to  287.0    
RIV   no.    9 value from time series:   113.50     for time:  286.0     to  287.0    
RIV   no.   10 value from time series:   113.50     for time:  286.0     to  287.0    

 NO OUTPUT CONTROL FOR STRESS PERIOD    7   TIME STEP  135
RIV   no.    1 value from time series:   101.00     for time:  287.0     to  288.0    
RIV   no.    2 value from time series:   101.00     for time:  287.0     to  288.0    
RIV   no.    3 value from time series:   111.50     for time:  287.0     to  288.0    
RIV   no.    4 value from time series:   111.50     for time:  287.0     to  288.0    
RIV   no.    5 value from time series:   115.10     for time:  287.0     to  288.0    
RIV   no.    6 value from time series:   115.10     for time:  287.0     to  288.0    
RIV   no.    7 value from time series:   104.00     for time:  287.0     to  288.0    
RIV   no.    8 value from time series:   104.00     for time:  287.0     to  288.0    
RIV   no.    9 value from time series:   113.50     for time:  287.0     to  288.0    
RIV   no.   10 value from time series:   113.50     for time:  287.0     to  288.0    
RIV   no.    1 value from time series:   101.00     for time:  287.0     to  288.0    
RIV   no.    2 value from time series:   101.00     for time:  287.0     to  288.0    
RIV   no.    3 value from time series:   111.50     for time:  287.0     to  288.0    
RIV   no.    4 value from time series:   111.50     for time:  287.0     to  288.0    
RIV   no.    5 value from time series:   115.10     for time:  287.0     to  288.0    
RIV   no.    6 value from time series:   115.10     for time:  287.0     to  288.0    
RIV   no.    7 value from time series:   104.00     for time:  287.0     to  288.0    
RIV   no.    8 value from time series:   104.00     for time:  287.0     to  288.0    
RIV   no.    9 value from time series:   113.50     for time:  287.0     to  288.0    
RIV   no.   10 value from time series:   113.50     for time:  287.0     to  288.0    

 NO OUTPUT CONTROL FOR STRESS PERIOD    7   TIME STEP  136
RIV   no.    1 value from time series:   101.00     for time:  288.0     to  289.0    
RIV   no.    2 value from time series:   101.00     for time:  288.0     to  289.0    
RIV   no.    3 value from time series:   111.50     for time:  288.0     to  289.0    
RIV   no.    4 value from time series:   111.50     for time:  288.0     to  289.0    
RIV   no.    5 value from time series:   115.10     for time:  288.0     to  289.0    
RIV   no.    6 value from time series:   115.10     for time:  288.0     to  289.0    
RIV   no.    7 value from time series:   104.00     for time:  288.0     to  289.0    
RIV   no.    8 value from time series:   104.00     for time:  288.0     to  289.0    
RIV   no.    9 value from time series:   113.50     for time:  288.0     to  289.0    
RIV   no.   10 value from time series:   113.50     for time:  288.0     to  289.0    
RIV   no.    1 value from time series:   101.00     for time:  288.0     to  289.0    
RIV   no.    2 value from time series:   101.00     for time:  288.0     to  289.0    
RIV   no.    3 value from time series:   111.50     for time:  288.0     to  289.0    
RIV   no.    4 value from time series:   111.50     for time:  288.0     to  289.0    
RIV   no.    5 value from time series:   115.10     for time:  288.0     to  289.0    
RIV   no.    6 value from time series:   115.10     for time:  288.0     to  289.0    
RIV   no.    7 value from time series:   104.00     for time:  288.0     to  289.0    
RIV   no.    8 value from time series:   104.00     for time:  288.0     to  289.0    
RIV   no.    9 value from time series:   113.50     for time:  288.0     to  289.0    
RIV   no.   10 value from time series:   113.50     for time:  288.0     to  289.0    

 NO OUTPUT CONTROL FOR STRESS PERIOD    7   TIME STEP  137
RIV   no.    1 value from time series:   101.00     for time:  289.0     to  290.0    
RIV   no.    2 value from time series:   101.00     for time:  289.0     to  290.0    
RIV   no.    3 value from time series:   111.50     for time:  289.0     to  290.0    
RIV   no.    4 value from time series:   111.50     for time:  289.0     to  290.0    
RIV   no.    5 value from time series:   115.10     for time:  289.0     to  290.0    
RIV   no.    6 value from time series:   115.10     for time:  289.0     to  290.0    
RIV   no.    7 value from time series:   104.00     for time:  289.0     to  290.0    
RIV   no.    8 value from time series:   104.00     for time:  289.0     to  290.0    
RIV   no.    9 value from time series:   113.50     for time:  289.0     to  290.0    
RIV   no.   10 value from time series:   113.50     for time:  289.0     to  290.0    
RIV   no.    1 value from time series:   101.00     for time:  289.0     to  290.0    
RIV   no.    2 value from time series:   101.00     for time:  289.0     to  290.0    
RIV   no.    3 value from time series:   111.50     for time:  289.0     to  290.0    
RIV   no.    4 value from time series:   111.50     for time:  289.0     to  290.0    
RIV   no.    5 value from time series:   115.10     for time:  289.0     to  290.0    
RIV   no.    6 value from time series:   115.10     for time:  289.0     to  290.0    
RIV   no.    7 value from time series:   104.00     for time:  289.0     to  290.0    
RIV   no.    8 value from time series:   104.00     for time:  289.0     to  290.0    
RIV   no.    9 value from time series:   113.50     for time:  289.0     to  290.0    
RIV   no.   10 value from time series:   113.50     for time:  289.0     to  290.0    

 NO OUTPUT CONTROL FOR STRESS PERIOD    7   TIME STEP  138
RIV   no.    1 value from time series:   101.00     for time:  290.0     to  291.0    
RIV   no.    2 value from time series:   101.00     for time:  290.0     to  291.0    
RIV   no.    3 value from time series:   111.50     for time:  290.0     to  291.0    
RIV   no.    4 value from time series:   111.50     for time:  290.0     to  291.0    
RIV   no.    5 value from time series:   115.10     for time:  290.0     to  291.0    
RIV   no.    6 value from time series:   115.10     for time:  290.0     to  291.0    
RIV   no.    7 value from time series:   104.00     for time:  290.0     to  291.0    
RIV   no.    8 value from time series:   104.00     for time:  290.0     to  291.0    
RIV   no.    9 value from time series:   113.50     for time:  290.0     to  291.0    
RIV   no.   10 value from time series:   113.50     for time:  290.0     to  291.0    
RIV   no.    1 value from time series:   101.00     for time:  290.0     to  291.0    
RIV   no.    2 value from time series:   101.00     for time:  290.0     to  291.0    
RIV   no.    3 value from time series:   111.50     for time:  290.0     to  291.0    
RIV   no.    4 value from time series:   111.50     for time:  290.0     to  291.0    
RIV   no.    5 value from time series:   115.10     for time:  290.0     to  291.0    
RIV   no.    6 value from time series:   115.10     for time:  290.0     to  291.0    
RIV   no.    7 value from time series:   104.00     for time:  290.0     to  291.0    
RIV   no.    8 value from time series:   104.00     for time:  290.0     to  291.0    
RIV   no.    9 value from time series:   113.50     for time:  290.0     to  291.0    
RIV   no.   10 value from time series:   113.50     for time:  290.0     to  291.0    

 NO OUTPUT CONTROL FOR STRESS PERIOD    7   TIME STEP  139
RIV   no.    1 value from time series:   101.00     for time:  291.0     to  292.0    
RIV   no.    2 value from time series:   101.00     for time:  291.0     to  292.0    
RIV   no.    3 value from time series:   111.50     for time:  291.0     to  292.0    
RIV   no.    4 value from time series:   111.50     for time:  291.0     to  292.0    
RIV   no.    5 value from time series:   115.10     for time:  291.0     to  292.0    
RIV   no.    6 value from time series:   115.10     for time:  291.0     to  292.0    
RIV   no.    7 value from time series:   104.00     for time:  291.0     to  292.0    
RIV   no.    8 value from time series:   104.00     for time:  291.0     to  292.0    
RIV   no.    9 value from time series:   113.50     for time:  291.0     to  292.0    
RIV   no.   10 value from time series:   113.50     for time:  291.0     to  292.0    
RIV   no.    1 value from time series:   101.00     for time:  291.0     to  292.0    
RIV   no.    2 value from time series:   101.00     for time:  291.0     to  292.0    
RIV   no.    3 value from time series:   111.50     for time:  291.0     to  292.0    
RIV   no.    4 value from time series:   111.50     for time:  291.0     to  292.0    
RIV   no.    5 value from time series:   115.10     for time:  291.0     to  292.0    
RIV   no.    6 value from time series:   115.10     for time:  291.0     to  292.0    
RIV   no.    7 value from time series:   104.00     for time:  291.0     to  292.0    
RIV   no.    8 value from time series:   104.00     for time:  291.0     to  292.0    
RIV   no.    9 value from time series:   113.50     for time:  291.0     to  292.0    
RIV   no.   10 value from time series:   113.50     for time:  291.0     to  292.0    

 NO OUTPUT CONTROL FOR STRESS PERIOD    7   TIME STEP  140
RIV   no.    1 value from time series:   101.00     for time:  292.0     to  293.0    
RIV   no.    2 value from time series:   101.00     for time:  292.0     to  293.0    
RIV   no.    3 value from time series:   111.50     for time:  292.0     to  293.0    
RIV   no.    4 value from time series:   111.50     for time:  292.0     to  293.0    
RIV   no.    5 value from time series:   115.10     for time:  292.0     to  293.0    
RIV   no.    6 value from time series:   115.10     for time:  292.0     to  293.0    
RIV   no.    7 value from time series:   104.00     for time:  292.0     to  293.0    
RIV   no.    8 value from time series:   104.00     for time:  292.0     to  293.0    
RIV   no.    9 value from time series:   113.50     for time:  292.0     to  293.0    
RIV   no.   10 value from time series:   113.50     for time:  292.0     to  293.0    
RIV   no.    1 value from time series:   101.00     for time:  292.0     to  293.0    
RIV   no.    2 value from time series:   101.00     for time:  292.0     to  293.0    
RIV   no.    3 value from time series:   111.50     for time:  292.0     to  293.0    
RIV   no.    4 value from time series:   111.50     for time:  292.0     to  293.0    
RIV   no.    5 value from time series:   115.10     for time:  292.0     to  293.0    
RIV   no.    6 value from time series:   115.10     for time:  292.0     to  293.0    
RIV   no.    7 value from time series:   104.00     for time:  292.0     to  293.0    
RIV   no.    8 value from time series:   104.00     for time:  292.0     to  293.0    
RIV   no.    9 value from time series:   113.50     for time:  292.0     to  293.0    
RIV   no.   10 value from time series:   113.50     for time:  292.0     to  293.0    

 NO OUTPUT CONTROL FOR STRESS PERIOD    7   TIME STEP  141
RIV   no.    1 value from time series:   101.00     for time:  293.0     to  294.0    
RIV   no.    2 value from time series:   101.00     for time:  293.0     to  294.0    
RIV   no.    3 value from time series:   111.50     for time:  293.0     to  294.0    
RIV   no.    4 value from time series:   111.50     for time:  293.0     to  294.0    
RIV   no.    5 value from time series:   115.10     for time:  293.0     to  294.0    
RIV   no.    6 value from time series:   115.10     for time:  293.0     to  294.0    
RIV   no.    7 value from time series:   104.00     for time:  293.0     to  294.0    
RIV   no.    8 value from time series:   104.00     for time:  293.0     to  294.0    
RIV   no.    9 value from time series:   113.50     for time:  293.0     to  294.0    
RIV   no.   10 value from time series:   113.50     for time:  293.0     to  294.0    
RIV   no.    1 value from time series:   101.00     for time:  293.0     to  294.0    
RIV   no.    2 value from time series:   101.00     for time:  293.0     to  294.0    
RIV   no.    3 value from time series:   111.50     for time:  293.0     to  294.0    
RIV   no.    4 value from time series:   111.50     for time:  293.0     to  294.0    
RIV   no.    5 value from time series:   115.10     for time:  293.0     to  294.0    
RIV   no.    6 value from time series:   115.10     for time:  293.0     to  294.0    
RIV   no.    7 value from time series:   104.00     for time:  293.0     to  294.0    
RIV   no.    8 value from time series:   104.00     for time:  293.0     to  294.0    
RIV   no.    9 value from time series:   113.50     for time:  293.0     to  294.0    
RIV   no.   10 value from time series:   113.50     for time:  293.0     to  294.0    

 NO OUTPUT CONTROL FOR STRESS PERIOD    7   TIME STEP  142
RIV   no.    1 value from time series:   101.00     for time:  294.0     to  295.0    
RIV   no.    2 value from time series:   101.00     for time:  294.0     to  295.0    
RIV   no.    3 value from time series:   111.50     for time:  294.0     to  295.0    
RIV   no.    4 value from time series:   111.50     for time:  294.0     to  295.0    
RIV   no.    5 value from time series:   115.10     for time:  294.0     to  295.0    
RIV   no.    6 value from time series:   115.10     for time:  294.0     to  295.0    
RIV   no.    7 value from time series:   104.00     for time:  294.0     to  295.0    
RIV   no.    8 value from time series:   104.00     for time:  294.0     to  295.0    
RIV   no.    9 value from time series:   113.50     for time:  294.0     to  295.0    
RIV   no.   10 value from time series:   113.50     for time:  294.0     to  295.0    
RIV   no.    1 value from time series:   101.00     for time:  294.0     to  295.0    
RIV   no.    2 value from time series:   101.00     for time:  294.0     to  295.0    
RIV   no.    3 value from time series:   111.50     for time:  294.0     to  295.0    
RIV   no.    4 value from time series:   111.50     for time:  294.0     to  295.0    
RIV   no.    5 value from time series:   115.10     for time:  294.0     to  295.0    
RIV   no.    6 value from time series:   115.10     for time:  294.0     to  295.0    
RIV   no.    7 value from time series:   104.00     for time:  294.0     to  295.0    
RIV   no.    8 value from time series:   104.00     for time:  294.0     to  295.0    
RIV   no.    9 value from time series:   113.50     for time:  294.0     to  295.0    
RIV   no.   10 value from time series:   113.50     for time:  294.0     to  295.0    

 NO OUTPUT CONTROL FOR STRESS PERIOD    7   TIME STEP  143
RIV   no.    1 value from time series:   101.00     for time:  295.0     to  296.0    
RIV   no.    2 value from time series:   101.00     for time:  295.0     to  296.0    
RIV   no.    3 value from time series:   111.50     for time:  295.0     to  296.0    
RIV   no.    4 value from time series:   111.50     for time:  295.0     to  296.0    
RIV   no.    5 value from time series:   115.10     for time:  295.0     to  296.0    
RIV   no.    6 value from time series:   115.10     for time:  295.0     to  296.0    
RIV   no.    7 value from time series:   104.00     for time:  295.0     to  296.0    
RIV   no.    8 value from time series:   104.00     for time:  295.0     to  296.0    
RIV   no.    9 value from time series:   113.50     for time:  295.0     to  296.0    
RIV   no.   10 value from time series:   113.50     for time:  295.0     to  296.0    
RIV   no.    1 value from time series:   101.00     for time:  295.0     to  296.0    
RIV   no.    2 value from time series:   101.00     for time:  295.0     to  296.0    
RIV   no.    3 value from time series:   111.50     for time:  295.0     to  296.0    
RIV   no.    4 value from time series:   111.50     for time:  295.0     to  296.0    
RIV   no.    5 value from time series:   115.10     for time:  295.0     to  296.0    
RIV   no.    6 value from time series:   115.10     for time:  295.0     to  296.0    
RIV   no.    7 value from time series:   104.00     for time:  295.0     to  296.0    
RIV   no.    8 value from time series:   104.00     for time:  295.0     to  296.0    
RIV   no.    9 value from time series:   113.50     for time:  295.0     to  296.0    
RIV   no.   10 value from time series:   113.50     for time:  295.0     to  296.0    

 NO OUTPUT CONTROL FOR STRESS PERIOD    7   TIME STEP  144
RIV   no.    1 value from time series:   101.00     for time:  296.0     to  297.0    
RIV   no.    2 value from time series:   101.00     for time:  296.0     to  297.0    
RIV   no.    3 value from time series:   111.50     for time:  296.0     to  297.0    
RIV   no.    4 value from time series:   111.50     for time:  296.0     to  297.0    
RIV   no.    5 value from time series:   115.10     for time:  296.0     to  297.0    
RIV   no.    6 value from time series:   115.10     for time:  296.0     to  297.0    
RIV   no.    7 value from time series:   104.00     for time:  296.0     to  297.0    
RIV   no.    8 value from time series:   104.00     for time:  296.0     to  297.0    
RIV   no.    9 value from time series:   113.50     for time:  296.0     to  297.0    
RIV   no.   10 value from time series:   113.50     for time:  296.0     to  297.0    
RIV   no.    1 value from time series:   101.00     for time:  296.0     to  297.0    
RIV   no.    2 value from time series:   101.00     for time:  296.0     to  297.0    
RIV   no.    3 value from time series:   111.50     for time:  296.0     to  297.0    
RIV   no.    4 value from time series:   111.50     for time:  296.0     to  297.0    
RIV   no.    5 value from time series:   115.10     for time:  296.0     to  297.0    
RIV   no.    6 value from time series:   115.10     for time:  296.0     to  297.0    
RIV   no.    7 value from time series:   104.00     for time:  296.0     to  297.0    
RIV   no.    8 value from time series:   104.00     for time:  296.0     to  297.0    
RIV   no.    9 value from time series:   113.50     for time:  296.0     to  297.0    
RIV   no.   10 value from time series:   113.50     for time:  296.0     to  297.0    

 NO OUTPUT CONTROL FOR STRESS PERIOD    7   TIME STEP  145
RIV   no.    1 value from time series:   101.00     for time:  297.0     to  298.0    
RIV   no.    2 value from time series:   101.00     for time:  297.0     to  298.0    
RIV   no.    3 value from time series:   111.50     for time:  297.0     to  298.0    
RIV   no.    4 value from time series:   111.50     for time:  297.0     to  298.0    
RIV   no.    5 value from time series:   115.10     for time:  297.0     to  298.0    
RIV   no.    6 value from time series:   115.10     for time:  297.0     to  298.0    
RIV   no.    7 value from time series:   104.00     for time:  297.0     to  298.0    
RIV   no.    8 value from time series:   104.00     for time:  297.0     to  298.0    
RIV   no.    9 value from time series:   113.50     for time:  297.0     to  298.0    
RIV   no.   10 value from time series:   113.50     for time:  297.0     to  298.0    
RIV   no.    1 value from time series:   101.00     for time:  297.0     to  298.0    
RIV   no.    2 value from time series:   101.00     for time:  297.0     to  298.0    
RIV   no.    3 value from time series:   111.50     for time:  297.0     to  298.0    
RIV   no.    4 value from time series:   111.50     for time:  297.0     to  298.0    
RIV   no.    5 value from time series:   115.10     for time:  297.0     to  298.0    
RIV   no.    6 value from time series:   115.10     for time:  297.0     to  298.0    
RIV   no.    7 value from time series:   104.00     for time:  297.0     to  298.0    
RIV   no.    8 value from time series:   104.00     for time:  297.0     to  298.0    
RIV   no.    9 value from time series:   113.50     for time:  297.0     to  298.0    
RIV   no.   10 value from time series:   113.50     for time:  297.0     to  298.0    

 NO OUTPUT CONTROL FOR STRESS PERIOD    7   TIME STEP  146
RIV   no.    1 value from time series:   101.00     for time:  298.0     to  299.0    
RIV   no.    2 value from time series:   101.00     for time:  298.0     to  299.0    
RIV   no.    3 value from time series:   111.50     for time:  298.0     to  299.0    
RIV   no.    4 value from time series:   111.50     for time:  298.0     to  299.0    
RIV   no.    5 value from time series:   115.10     for time:  298.0     to  299.0    
RIV   no.    6 value from time series:   115.10     for time:  298.0     to  299.0    
RIV   no.    7 value from time series:   104.00     for time:  298.0     to  299.0    
RIV   no.    8 value from time series:   104.00     for time:  298.0     to  299.0    
RIV   no.    9 value from time series:   113.50     for time:  298.0     to  299.0    
RIV   no.   10 value from time series:   113.50     for time:  298.0     to  299.0    
RIV   no.    1 value from time series:   101.00     for time:  298.0     to  299.0    
RIV   no.    2 value from time series:   101.00     for time:  298.0     to  299.0    
RIV   no.    3 value from time series:   111.50     for time:  298.0     to  299.0    
RIV   no.    4 value from time series:   111.50     for time:  298.0     to  299.0    
RIV   no.    5 value from time series:   115.10     for time:  298.0     to  299.0    
RIV   no.    6 value from time series:   115.10     for time:  298.0     to  299.0    
RIV   no.    7 value from time series:   104.00     for time:  298.0     to  299.0    
RIV   no.    8 value from time series:   104.00     for time:  298.0     to  299.0    
RIV   no.    9 value from time series:   113.50     for time:  298.0     to  299.0    
RIV   no.   10 value from time series:   113.50     for time:  298.0     to  299.0    

 NO OUTPUT CONTROL FOR STRESS PERIOD    7   TIME STEP  147
RIV   no.    1 value from time series:   101.00     for time:  299.0     to  300.0    
RIV   no.    2 value from time series:   101.00     for time:  299.0     to  300.0    
RIV   no.    3 value from time series:   111.50     for time:  299.0     to  300.0    
RIV   no.    4 value from time series:   111.50     for time:  299.0     to  300.0    
RIV   no.    5 value from time series:   115.10     for time:  299.0     to  300.0    
RIV   no.    6 value from time series:   115.10     for time:  299.0     to  300.0    
RIV   no.    7 value from time series:   104.00     for time:  299.0     to  300.0    
RIV   no.    8 value from time series:   104.00     for time:  299.0     to  300.0    
RIV   no.    9 value from time series:   113.50     for time:  299.0     to  300.0    
RIV   no.   10 value from time series:   113.50     for time:  299.0     to  300.0    
RIV   no.    1 value from time series:   101.00     for time:  299.0     to  300.0    
RIV   no.    2 value from time series:   101.00     for time:  299.0     to  300.0    
RIV   no.    3 value from time series:   111.50     for time:  299.0     to  300.0    
RIV   no.    4 value from time series:   111.50     for time:  299.0     to  300.0    
RIV   no.    5 value from time series:   115.10     for time:  299.0     to  300.0    
RIV   no.    6 value from time series:   115.10     for time:  299.0     to  300.0    
RIV   no.    7 value from time series:   104.00     for time:  299.0     to  300.0    
RIV   no.    8 value from time series:   104.00     for time:  299.0     to  300.0    
RIV   no.    9 value from time series:   113.50     for time:  299.0     to  300.0    
RIV   no.   10 value from time series:   113.50     for time:  299.0     to  300.0    

 NO OUTPUT CONTROL FOR STRESS PERIOD    7   TIME STEP  148
RIV   no.    1 value from time series:   101.00     for time:  300.0     to  301.0    
RIV   no.    2 value from time series:   101.00     for time:  300.0     to  301.0    
RIV   no.    3 value from time series:   111.50     for time:  300.0     to  301.0    
RIV   no.    4 value from time series:   111.50     for time:  300.0     to  301.0    
RIV   no.    5 value from time series:   115.10     for time:  300.0     to  301.0    
RIV   no.    6 value from time series:   115.10     for time:  300.0     to  301.0    
RIV   no.    7 value from time series:   104.00     for time:  300.0     to  301.0    
RIV   no.    8 value from time series:   104.00     for time:  300.0     to  301.0    
RIV   no.    9 value from time series:   113.50     for time:  300.0     to  301.0    
RIV   no.   10 value from time series:   113.50     for time:  300.0     to  301.0    

 RchArraySeries           =  1.500000E-03 FOR LAYER   1

 EtsArraySeries           =  3.300000E-04 FOR LAYER   1
RIV   no.    1 value from time series:   101.00     for time:  300.0     to  301.0    
RIV   no.    2 value from time series:   101.00     for time:  300.0     to  301.0    
RIV   no.    3 value from time series:   111.50     for time:  300.0     to  301.0    
RIV   no.    4 value from time series:   111.50     for time:  300.0     to  301.0    
RIV   no.    5 value from time series:   115.10     for time:  300.0     to  301.0    
RIV   no.    6 value from time series:   115.10     for time:  300.0     to  301.0    
RIV   no.    7 value from time series:   104.00     for time:  300.0     to  301.0    
RIV   no.    8 value from time series:   104.00     for time:  300.0     to  301.0    
RIV   no.    9 value from time series:   113.50     for time:  300.0     to  301.0    
RIV   no.   10 value from time series:   113.50     for time:  300.0     to  301.0    

 NO OUTPUT CONTROL FOR STRESS PERIOD    7   TIME STEP  149
RIV   no.    1 value from time series:   101.00     for time:  301.0     to  302.0    
RIV   no.    2 value from time series:   101.00     for time:  301.0     to  302.0    
RIV   no.    3 value from time series:   111.50     for time:  301.0     to  302.0    
RIV   no.    4 value from time series:   111.50     for time:  301.0     to  302.0    
RIV   no.    5 value from time series:   115.10     for time:  301.0     to  302.0    
RIV   no.    6 value from time series:   115.10     for time:  301.0     to  302.0    
RIV   no.    7 value from time series:   104.00     for time:  301.0     to  302.0    
RIV   no.    8 value from time series:   104.00     for time:  301.0     to  302.0    
RIV   no.    9 value from time series:   113.50     for time:  301.0     to  302.0    
RIV   no.   10 value from time series:   113.50     for time:  301.0     to  302.0    
RIV   no.    1 value from time series:   101.00     for time:  301.0     to  302.0    
RIV   no.    2 value from time series:   101.00     for time:  301.0     to  302.0    
RIV   no.    3 value from time series:   111.50     for time:  301.0     to  302.0    
RIV   no.    4 value from time series:   111.50     for time:  301.0     to  302.0    
RIV   no.    5 value from time series:   115.10     for time:  301.0     to  302.0    
RIV   no.    6 value from time series:   115.10     for time:  301.0     to  302.0    
RIV   no.    7 value from time series:   104.00     for time:  301.0     to  302.0    
RIV   no.    8 value from time series:   104.00     for time:  301.0     to  302.0    
RIV   no.    9 value from time series:   113.50     for time:  301.0     to  302.0    
RIV   no.   10 value from time series:   113.50     for time:  301.0     to  302.0    

 NO OUTPUT CONTROL FOR STRESS PERIOD    7   TIME STEP  150
RIV   no.    1 value from time series:   101.00     for time:  302.0     to  303.0    
RIV   no.    2 value from time series:   101.00     for time:  302.0     to  303.0    
RIV   no.    3 value from time series:   111.50     for time:  302.0     to  303.0    
RIV   no.    4 value from time series:   111.50     for time:  302.0     to  303.0    
RIV   no.    5 value from time series:   115.10     for time:  302.0     to  303.0    
RIV   no.    6 value from time series:   115.10     for time:  302.0     to  303.0    
RIV   no.    7 value from time series:   104.00     for time:  302.0     to  303.0    
RIV   no.    8 value from time series:   104.00     for time:  302.0     to  303.0    
RIV   no.    9 value from time series:   113.50     for time:  302.0     to  303.0    
RIV   no.   10 value from time series:   113.50     for time:  302.0     to  303.0    
RIV   no.    1 value from time series:   101.00     for time:  302.0     to  303.0    
RIV   no.    2 value from time series:   101.00     for time:  302.0     to  303.0    
RIV   no.    3 value from time series:   111.50     for time:  302.0     to  303.0    
RIV   no.    4 value from time series:   111.50     for time:  302.0     to  303.0    
RIV   no.    5 value from time series:   115.10     for time:  302.0     to  303.0    
RIV   no.    6 value from time series:   115.10     for time:  302.0     to  303.0    
RIV   no.    7 value from time series:   104.00     for time:  302.0     to  303.0    
RIV   no.    8 value from time series:   104.00     for time:  302.0     to  303.0    
RIV   no.    9 value from time series:   113.50     for time:  302.0     to  303.0    
RIV   no.   10 value from time series:   113.50     for time:  302.0     to  303.0    

 NO OUTPUT CONTROL FOR STRESS PERIOD    7   TIME STEP  151
RIV   no.    1 value from time series:   101.00     for time:  303.0     to  304.0    
RIV   no.    2 value from time series:   101.00     for time:  303.0     to  304.0    
RIV   no.    3 value from time series:   111.50     for time:  303.0     to  304.0    
RIV   no.    4 value from time series:   111.50     for time:  303.0     to  304.0    
RIV   no.    5 value from time series:   115.10     for time:  303.0     to  304.0    
RIV   no.    6 value from time series:   115.10     for time:  303.0     to  304.0    
RIV   no.    7 value from time series:   104.00     for time:  303.0     to  304.0    
RIV   no.    8 value from time series:   104.00     for time:  303.0     to  304.0    
RIV   no.    9 value from time series:   113.50     for time:  303.0     to  304.0    
RIV   no.   10 value from time series:   113.50     for time:  303.0     to  304.0    
RIV   no.    1 value from time series:   101.00     for time:  303.0     to  304.0    
RIV   no.    2 value from time series:   101.00     for time:  303.0     to  304.0    
RIV   no.    3 value from time series:   111.50     for time:  303.0     to  304.0    
RIV   no.    4 value from time series:   111.50     for time:  303.0     to  304.0    
RIV   no.    5 value from time series:   115.10     for time:  303.0     to  304.0    
RIV   no.    6 value from time series:   115.10     for time:  303.0     to  304.0    
RIV   no.    7 value from time series:   104.00     for time:  303.0     to  304.0    
RIV   no.    8 value from time series:   104.00     for time:  303.0     to  304.0    
RIV   no.    9 value from time series:   113.50     for time:  303.0     to  304.0    
RIV   no.   10 value from time series:   113.50     for time:  303.0     to  304.0    

 NO OUTPUT CONTROL FOR STRESS PERIOD    7   TIME STEP  152
RIV   no.    1 value from time series:   101.00     for time:  304.0     to  305.0    
RIV   no.    2 value from time series:   101.00     for time:  304.0     to  305.0    
RIV   no.    3 value from time series:   111.50     for time:  304.0     to  305.0    
RIV   no.    4 value from time series:   111.50     for time:  304.0     to  305.0    
RIV   no.    5 value from time series:   115.10     for time:  304.0     to  305.0    
RIV   no.    6 value from time series:   115.10     for time:  304.0     to  305.0    
RIV   no.    7 value from time series:   104.00     for time:  304.0     to  305.0    
RIV   no.    8 value from time series:   104.00     for time:  304.0     to  305.0    
RIV   no.    9 value from time series:   113.50     for time:  304.0     to  305.0    
RIV   no.   10 value from time series:   113.50     for time:  304.0     to  305.0    
RIV   no.    1 value from time series:   101.00     for time:  304.0     to  305.0    
RIV   no.    2 value from time series:   101.00     for time:  304.0     to  305.0    
RIV   no.    3 value from time series:   111.50     for time:  304.0     to  305.0    
RIV   no.    4 value from time series:   111.50     for time:  304.0     to  305.0    
RIV   no.    5 value from time series:   115.10     for time:  304.0     to  305.0    
RIV   no.    6 value from time series:   115.10     for time:  304.0     to  305.0    
RIV   no.    7 value from time series:   104.00     for time:  304.0     to  305.0    
RIV   no.    8 value from time series:   104.00     for time:  304.0     to  305.0    
RIV   no.    9 value from time series:   113.50     for time:  304.0     to  305.0    
RIV   no.   10 value from time series:   113.50     for time:  304.0     to  305.0    

 OUTPUT CONTROL FOR STRESS PERIOD    7   TIME STEP  153
    PRINT BUDGET
    PRINT HEAD
    PRINT HEAD FOR ALL LAYERS
    SAVE BUDGET
    SAVE HEAD
    SAVE HEAD FOR ALL LAYERS
    SAVE IBOUND
    SAVE IBOUND FOR ALL LAYERS
 UBDSV1 SAVING          STORAGE ON UNIT   1016 AT TIME STEP    153, STRESS PERIOD      7
 UBDSV1 SAVING FLOW RIGHT FACE  ON UNIT   1016 AT TIME STEP    153, STRESS PERIOD      7
 UBDSV1 SAVING FLOW FRONT FACE  ON UNIT   1016 AT TIME STEP    153, STRESS PERIOD      7
 UBDSV1 SAVING FLOW LOWER FACE  ON UNIT   1016 AT TIME STEP    153, STRESS PERIOD      7
 UBDSV4 SAVING WELLS NEAR RIVER ON UNIT   1016 AT TIME STEP    153, STRESS PERIOD      7
 UBDSV4 SAVING RIVER            ON UNIT   1016 AT TIME STEP    153, STRESS PERIOD      7

 RIVER              PERIOD  7   STEP153
 BOUNDARY      1   LAYER   1   ROW     1   COL    15   RATE    -5216.30    
 BOUNDARY      2   LAYER   1   ROW     2   COL    15   RATE    -6345.53      RIV2
 BOUNDARY      3   LAYER   1   ROW     3   COL    15   RATE    -2603.50      RIV3
 BOUNDARY      4   LAYER   1   ROW     4   COL    15   RATE    -4069.83    
 BOUNDARY      5   LAYER   1   ROW     5   COL    15   RATE    -2702.40    
 BOUNDARY      6   LAYER   1   ROW     6   COL    15   RATE    -2048.33    
 BOUNDARY      7   LAYER   1   ROW     7   COL    15   RATE    -6546.09      RIVX
 BOUNDARY      8   LAYER   1   ROW     8   COL    15   RATE    -6400.28      RIVX
 BOUNDARY      9   LAYER   1   ROW     9   COL    15   RATE    -2605.62      RIVX
 BOUNDARY     10   LAYER   1   ROW    10   COL    15   RATE    -3516.60    

 GHB LAKES          PERIOD  7   STEP153
 BOUNDARY      1   LAYER   1   ROW     3   COL     1   RATE    -15751.2    
 BOUNDARY      2   LAYER   1   ROW     7   COL     1   RATE    -2831.63      GHB2_UPPER
 BOUNDARY      3   LAYER   1   ROW     7   COL     1   RATE    -13590.2      GHB2_LOWER
 UBDSV4 SAVING RECHARGE         ON UNIT   1016 AT TIME STEP    153, STRESS PERIOD      7

 RECHARGE           PERIOD  7   STEP153
 BOUNDARY      1   LAYER   1   ROW     1   COL     1   RATE     587.500    
 BOUNDARY      2   LAYER   1   ROW     1   COL     2   RATE     587.500    
 BOUNDARY      3   LAYER   1   ROW     1   COL     3   RATE     587.500    
 BOUNDARY      4   LAYER   1   ROW     1   COL     4   RATE     587.500    
 BOUNDARY      5   LAYER   1   ROW     1   COL     5   RATE     587.500    
 BOUNDARY      6   LAYER   1   ROW     1   COL     6   RATE     587.500    
 BOUNDARY      7   LAYER   1   ROW     1   COL     7   RATE     587.500    
 BOUNDARY      8   LAYER   1   ROW     1   COL     8   RATE     587.500    
 BOUNDARY      9   LAYER   1   ROW     1   COL     9   RATE     587.500    
 BOUNDARY     10   LAYER   1   ROW     1   COL    10   RATE     587.500    
 BOUNDARY     11   LAYER   1   ROW     1   COL    11   RATE     587.500    
 BOUNDARY     12   LAYER   1   ROW     1   COL    12   RATE     587.500    
 BOUNDARY     13   LAYER   1   ROW     1   COL    13   RATE     587.500    
 BOUNDARY     14   LAYER   1   ROW     1   COL    14   RATE     587.500    
 BOUNDARY     15   LAYER   1   ROW     1   COL    15   RATE     587.500    
 BOUNDARY     16   LAYER   1   ROW     2   COL     1   RATE     587.500    
 BOUNDARY     17   LAYER   1   ROW     2   COL     2   RATE     587.500    
 BOUNDARY     18   LAYER   1   ROW     2   COL     3   RATE     587.500    
 BOUNDARY     19   LAYER   1   ROW     2   COL     4   RATE     587.500    
 BOUNDARY     20   LAYER   1   ROW     2   COL     5   RATE     587.500    
 BOUNDARY     21   LAYER   1   ROW     2   COL     6   RATE     587.500    
 BOUNDARY     22   LAYER   1   ROW     2   COL     7   RATE     587.500    
 BOUNDARY     23   LAYER   1   ROW     2   COL     8   RATE     587.500    
 BOUNDARY     24   LAYER   1   ROW     2   COL     9   RATE     587.500    
 BOUNDARY     25   LAYER   1   ROW     2   COL    10   RATE     587.500    
 BOUNDARY     26   LAYER   1   ROW     2   COL    11   RATE     587.500    
 BOUNDARY     27   LAYER   1   ROW     2   COL    12   RATE     587.500    
 BOUNDARY     28   LAYER   1   ROW     2   COL    13   RATE     587.500    
 BOUNDARY     29   LAYER   1   ROW     2   COL    14   RATE     587.500    
 BOUNDARY     30   LAYER   1   ROW     2   COL    15   RATE     587.500    
 BOUNDARY     31   LAYER   1   ROW     3   COL     1   RATE     587.500    
 BOUNDARY     32   LAYER   1   ROW     3   COL     2   RATE     587.500    
 BOUNDARY     33   LAYER   1   ROW     3   COL     3   RATE     587.500    
 BOUNDARY     34   LAYER   1   ROW     3   COL     4   RATE     587.500    
 BOUNDARY     35   LAYER   1   ROW     3   COL     5   RATE     587.500    
 BOUNDARY     36   LAYER   1   ROW     3   COL     6   RATE     587.500    
 BOUNDARY     37   LAYER   1   ROW     3   COL     7   RATE     587.500    
 BOUNDARY     38   LAYER   1   ROW     3   COL     8   RATE     587.500    
 BOUNDARY     39   LAYER   1   ROW     3   COL     9   RATE     587.500    
 BOUNDARY     40   LAYER   1   ROW     3   COL    10   RATE     587.500    
 BOUNDARY     41   LAYER   1   ROW     3   COL    11   RATE     587.500    
 BOUNDARY     42   LAYER   1   ROW     3   COL    12   RATE     587.500    
 BOUNDARY     43   LAYER   1   ROW     3   COL    13   RATE     587.500    
 BOUNDARY     44   LAYER   1   ROW     3   COL    14   RATE     587.500    
 BOUNDARY     45   LAYER   1   ROW     3   COL    15   RATE     587.500    
 BOUNDARY     46   LAYER   1   ROW     4   COL     1   RATE     587.500    
 BOUNDARY     47   LAYER   1   ROW     4   COL     2   RATE     587.500    
 BOUNDARY     48   LAYER   1   ROW     4   COL     3   RATE     587.500    
 BOUNDARY     49   LAYER   1   ROW     4   COL     4   RATE     587.500    
 BOUNDARY     50   LAYER   1   ROW     4   COL     5   RATE     587.500    
 BOUNDARY     51   LAYER   1   ROW     4   COL     6   RATE     587.500    
 BOUNDARY     52   LAYER   1   ROW     4   COL     7   RATE     587.500    
 BOUNDARY     53   LAYER   1   ROW     4   COL     8   RATE     587.500    
 BOUNDARY     54   LAYER   1   ROW     4   COL     9   RATE     587.500    
 BOUNDARY     55   LAYER   1   ROW     4   COL    10   RATE     587.500    
 BOUNDARY     56   LAYER   1   ROW     4   COL    11   RATE     587.500    
 BOUNDARY     57   LAYER   1   ROW     4   COL    12   RATE     587.500    
 BOUNDARY     58   LAYER   1   ROW     4   COL    13   RATE     587.500    
 BOUNDARY     59   LAYER   1   ROW     4   COL    14   RATE     587.500    
 BOUNDARY     60   LAYER   1   ROW     4   COL    15   RATE     587.500    
 BOUNDARY     61   LAYER   1   ROW     5   COL     1   RATE     587.500    
 BOUNDARY     62   LAYER   1   ROW     5   COL     2   RATE     587.500    
 BOUNDARY     63   LAYER   1   ROW     5   COL     3   RATE     587.500    
 BOUNDARY     64   LAYER   1   ROW     5   COL     4   RATE     587.500    
 BOUNDARY     65   LAYER   1   ROW     5   COL     5   RATE     587.500    
 BOUNDARY     66   LAYER   1   ROW     5   COL     6   RATE     587.500    
 BOUNDARY     67   LAYER   1   ROW     5   COL     7   RATE     587.500    
 BOUNDARY     68   LAYER   1   ROW     5   COL     8   RATE     587.500    
 BOUNDARY     69   LAYER   1   ROW     5   COL     9   RATE     587.500    
 BOUNDARY     70   LAYER   1   ROW     5   COL    10   RATE     587.500    
 BOUNDARY     71   LAYER   1   ROW     5   COL    11   RATE     587.500    
 BOUNDARY     72   LAYER   1   ROW     5   COL    12   RATE     587.500    
 BOUNDARY     73   LAYER   1   ROW     5   COL    13   RATE     587.500    
 BOUNDARY     74   LAYER   1   ROW     5   COL    14   RATE     587.500    
 BOUNDARY     75   LAYER   1   ROW     5   COL    15   RATE     587.500    
 BOUNDARY     76   LAYER   1   ROW     6   COL     1   RATE     587.500    
 BOUNDARY     77   LAYER   1   ROW     6   COL     2   RATE     587.500    
 BOUNDARY     78   LAYER   1   ROW     6   COL     3   RATE     587.500    
 BOUNDARY     79   LAYER   1   ROW     6   COL     4   RATE     587.500    
 BOUNDARY     80   LAYER   1   ROW     6   COL     5   RATE     587.500    
 BOUNDARY     81   LAYER   1   ROW     6   COL     6   RATE     587.500    
 BOUNDARY     82   LAYER   1   ROW     6   COL     7   RATE     587.500    
 BOUNDARY     83   LAYER   1   ROW     6   COL     8   RATE     587.500    
 BOUNDARY     84   LAYER   1   ROW     6   COL     9   RATE     587.500    
 BOUNDARY     85   LAYER   1   ROW     6   COL    10   RATE     587.500    
 BOUNDARY     86   LAYER   1   ROW     6   COL    11   RATE     587.500    
 BOUNDARY     87   LAYER   1   ROW     6   COL    12   RATE     587.500    
 BOUNDARY     88   LAYER   1   ROW     6   COL    13   RATE     587.500    
 BOUNDARY     89   LAYER   1   ROW     6   COL    14   RATE     587.500    
 BOUNDARY     90   LAYER   1   ROW     6   COL    15   RATE     587.500    
 BOUNDARY     91   LAYER   1   ROW     7   COL     1   RATE     587.500    
 BOUNDARY     92   LAYER   1   ROW     7   COL     2   RATE     587.500    
 BOUNDARY     93   LAYER   1   ROW     7   COL     3   RATE     587.500    
 BOUNDARY     94   LAYER   1   ROW     7   COL     4   RATE     587.500    
 BOUNDARY     95   LAYER   1   ROW     7   COL     5   RATE     587.500    
 BOUNDARY     96   LAYER   1   ROW     7   COL     6   RATE     587.500    
 BOUNDARY     97   LAYER   1   ROW     7   COL     7   RATE     587.500    
 BOUNDARY     98   LAYER   1   ROW     7   COL     8   RATE     587.500    
 BOUNDARY     99   LAYER   1   ROW     7   COL     9   RATE     587.500    
 BOUNDARY    100   LAYER   1   ROW     7   COL    10   RATE     587.500    
 BOUNDARY    101   LAYER   1   ROW     7   COL    11   RATE     587.500    
 BOUNDARY    102   LAYER   1   ROW     7   COL    12   RATE     587.500    
 BOUNDARY    103   LAYER   1   ROW     7   COL    13   RATE     587.500    
 BOUNDARY    104   LAYER   1   ROW     7   COL    14   RATE     587.500    
 BOUNDARY    105   LAYER   1   ROW     7   COL    15   RATE     587.500    
 BOUNDARY    106   LAYER   1   ROW     8   COL     1   RATE     587.500    
 BOUNDARY    107   LAYER   1   ROW     8   COL     2   RATE     587.500    
 BOUNDARY    108   LAYER   1   ROW     8   COL     3   RATE     587.500    
 BOUNDARY    109   LAYER   1   ROW     8   COL     4   RATE     587.500    
 BOUNDARY    110   LAYER   1   ROW     8   COL     5   RATE     587.500    
 BOUNDARY    111   LAYER   1   ROW     8   COL     6   RATE     587.500    
 BOUNDARY    112   LAYER   1   ROW     8   COL     7   RATE     587.500    
 BOUNDARY    113   LAYER   1   ROW     8   COL     8   RATE     587.500    
 BOUNDARY    114   LAYER   1   ROW     8   COL     9   RATE     587.500    
 BOUNDARY    115   LAYER   1   ROW     8   COL    10   RATE     587.500    
 BOUNDARY    116   LAYER   1   ROW     8   COL    11   RATE     587.500    
 BOUNDARY    117   LAYER   1   ROW     8   COL    12   RATE     587.500    
 BOUNDARY    118   LAYER   1   ROW     8   COL    13   RATE     587.500    
 BOUNDARY    119   LAYER   1   ROW     8   COL    14   RATE     587.500    
 BOUNDARY    120   LAYER   1   ROW     8   COL    15   RATE     587.500    
 BOUNDARY    121   LAYER   1   ROW     9   COL     1   RATE     587.500    
 BOUNDARY    122   LAYER   1   ROW     9   COL     2   RATE     587.500    
 BOUNDARY    123   LAYER   1   ROW     9   COL     3   RATE     587.500    
 BOUNDARY    124   LAYER   1   ROW     9   COL     4   RATE     587.500    
 BOUNDARY    125   LAYER   1   ROW     9   COL     5   RATE     587.500    
 BOUNDARY    126   LAYER   1   ROW     9   COL     6   RATE     587.500    
 BOUNDARY    127   LAYER   1   ROW     9   COL     7   RATE     587.500    
 BOUNDARY    128   LAYER   1   ROW     9   COL     8   RATE     587.500    
 BOUNDARY    129   LAYER   1   ROW     9   COL     9   RATE     587.500    
 BOUNDARY    130   LAYER   1   ROW     9   COL    10   RATE     587.500    
 BOUNDARY    131   LAYER   1   ROW     9   COL    11   RATE     587.500    
 BOUNDARY    132   LAYER   1   ROW     9   COL    12   RATE     587.500    
 BOUNDARY    133   LAYER   1   ROW     9   COL    13   RATE     587.500    
 BOUNDARY    134   LAYER   1   ROW     9   COL    14   RATE     587.500    
 BOUNDARY    135   LAYER   1   ROW     9   COL    15   RATE     587.500    
 BOUNDARY    136   LAYER   1   ROW    10   COL     1   RATE     587.500    
 BOUNDARY    137   LAYER   1   ROW    10   COL     2   RATE     587.500    
 BOUNDARY    138   LAYER   1   ROW    10   COL     3   RATE     587.500    
 BOUNDARY    139   LAYER   1   ROW    10   COL     4   RATE     587.500    
 BOUNDARY    140   LAYER   1   ROW    10   COL     5   RATE     587.500    
 BOUNDARY    141   LAYER   1   ROW    10   COL     6   RATE     587.500    
 BOUNDARY    142   LAYER   1   ROW    10   COL     7   RATE     587.500    
 BOUNDARY    143   LAYER   1   ROW    10   COL     8   RATE     587.500    
 BOUNDARY    144   LAYER   1   ROW    10   COL     9   RATE     587.500    
 BOUNDARY    145   LAYER   1   ROW    10   COL    10   RATE     587.500    
 BOUNDARY    146   LAYER   1   ROW    10   COL    11   RATE     587.500    
 BOUNDARY    147   LAYER   1   ROW    10   COL    12   RATE     587.500    
 BOUNDARY    148   LAYER   1   ROW    10   COL    13   RATE     587.500    
 BOUNDARY    149   LAYER   1   ROW    10   COL    14   RATE     587.500    
 BOUNDARY    150   LAYER   1   ROW    10   COL    15   RATE     587.500    
 UBDSV4 SAVING ET SEGS          ON UNIT   1016 AT TIME STEP    153, STRESS PERIOD      7

 ET SEGS            PERIOD  7   STEP153
 BOUNDARY      1   LAYER   1   ROW     1   COL     1   RATE    -5.67287    
 BOUNDARY      2   LAYER   1   ROW     1   COL     2   RATE    -18.8779    
 BOUNDARY      3   LAYER   1   ROW     1   COL     3   RATE    -84.6250    
 BOUNDARY      4   LAYER   1   ROW     1   COL     4   RATE    -84.6250    
 BOUNDARY      5   LAYER   1   ROW     1   COL     5   RATE    -84.6250    
 BOUNDARY      6   LAYER   1   ROW     1   COL     6   RATE    -84.6250    
 BOUNDARY      7   LAYER   1   ROW     1   COL     7   RATE    -84.6250    
 BOUNDARY      8   LAYER   1   ROW     1   COL     8   RATE    -84.6250    
 BOUNDARY      9   LAYER   1   ROW     1   COL     9   RATE    -84.6250    
 BOUNDARY     10   LAYER   1   ROW     1   COL    10   RATE    -84.6250    
 BOUNDARY     11   LAYER   1   ROW     1   COL    11   RATE    -84.6250    
 BOUNDARY     12   LAYER   1   ROW     1   COL    12   RATE    -38.6112    
 BOUNDARY     13   LAYER   1   ROW     1   COL    13   RATE    -3.04262    
 BOUNDARY     14   LAYER   1   ROW     1   COL    14   RATE     0.00000    
 BOUNDARY     15   LAYER   1   ROW     1   COL    15   RATE     0.00000    
 BOUNDARY     16   LAYER   1   ROW     2   COL     1   RATE     0.00000    
 BOUNDARY     17   LAYER   1   ROW     2   COL     2   RATE    -7.56903    
 BOUNDARY     18   LAYER   1   ROW     2   COL     3   RATE    -84.6250    
 BOUNDARY     19   LAYER   1   ROW     2   COL     4   RATE    -84.6250    
 BOUNDARY     20   LAYER   1   ROW     2   COL     5   RATE    -84.6250    
 BOUNDARY     21   LAYER   1   ROW     2   COL     6   RATE    -84.6250    
 BOUNDARY     22   LAYER   1   ROW     2   COL     7   RATE    -84.6250    
 BOUNDARY     23   LAYER   1   ROW     2   COL     8   RATE    -84.6250    
 BOUNDARY     24   LAYER   1   ROW     2   COL     9   RATE    -84.6250    
 BOUNDARY     25   LAYER   1   ROW     2   COL    10   RATE    -84.6250    
 BOUNDARY     26   LAYER   1   ROW     2   COL    11   RATE    -84.6250    
 BOUNDARY     27   LAYER   1   ROW     2   COL    12   RATE    -45.9289    
 BOUNDARY     28   LAYER   1   ROW     2   COL    13   RATE    -3.85719    
 BOUNDARY     29   LAYER   1   ROW     2   COL    14   RATE     0.00000    
 BOUNDARY     30   LAYER   1   ROW     2   COL    15   RATE     0.00000    
 BOUNDARY     31   LAYER   1   ROW     3   COL     1   RATE     0.00000    
 BOUNDARY     32   LAYER   1   ROW     3   COL     2   RATE    -1.42397    
 BOUNDARY     33   LAYER   1   ROW     3   COL     3   RATE    -59.3904    
 BOUNDARY     34   LAYER   1   ROW     3   COL     4   RATE    -84.6250    
 BOUNDARY     35   LAYER   1   ROW     3   COL     5   RATE    -84.6250    
 BOUNDARY     36   LAYER   1   ROW     3   COL     6   RATE    -84.6250    
 BOUNDARY     37   LAYER   1   ROW     3   COL     7   RATE    -84.6250    
 BOUNDARY     38   LAYER   1   ROW     3   COL     8   RATE    -84.6250    
 BOUNDARY     39   LAYER   1   ROW     3   COL     9   RATE    -84.6250    
 BOUNDARY     40   LAYER   1   ROW     3   COL    10   RATE    -84.6250    
 BOUNDARY     41   LAYER   1   ROW     3   COL    11   RATE    -84.6250    
 BOUNDARY     42   LAYER   1   ROW     3   COL    12   RATE    -58.2385    
 BOUNDARY     43   LAYER   1   ROW     3   COL    13   RATE    -5.33772    
 BOUNDARY     44   LAYER   1   ROW     3   COL    14   RATE     0.00000    
 BOUNDARY     45   LAYER   1   ROW     3   COL    15   RATE     0.00000    
 BOUNDARY     46   LAYER   1   ROW     4   COL     1   RATE     0.00000    
 BOUNDARY     47   LAYER   1   ROW     4   COL     2   RATE    -6.23031    
 BOUNDARY     48   LAYER   1   ROW     4   COL     3   RATE    -77.1997    
 BOUNDARY     49   LAYER   1   ROW     4   COL     4   RATE    -84.6250    
 BOUNDARY     50   LAYER   1   ROW     4   COL     5   RATE    -84.6250    
 BOUNDARY     51   LAYER   1   ROW     4   COL     6   RATE    -84.6250    
 BOUNDARY     52   LAYER   1   ROW     4   COL     7   RATE    -84.6250    
 BOUNDARY     53   LAYER   1   ROW     4   COL     8   RATE    -84.6250    
 BOUNDARY     54   LAYER   1   ROW     4   COL     9   RATE    -84.6250    
 BOUNDARY     55   LAYER   1   ROW     4   COL    10   RATE    -84.6250    
 BOUNDARY     56   LAYER   1   ROW     4   COL    11   RATE    -84.6250    
 BOUNDARY     57   LAYER   1   ROW     4   COL    12   RATE    -69.8424    
 BOUNDARY     58   LAYER   1   ROW     4   COL    13   RATE    -6.52647    
 BOUNDARY     59   LAYER   1   ROW     4   COL    14   RATE     0.00000    
 BOUNDARY     60   LAYER   1   ROW     4   COL    15   RATE     0.00000    
 BOUNDARY     61   LAYER   1   ROW     5   COL     1   RATE   -0.677506    
 BOUNDARY     62   LAYER   1   ROW     5   COL     2   RATE    -9.75439    
 BOUNDARY     63   LAYER   1   ROW     5   COL     3   RATE    -84.6250    
 BOUNDARY     64   LAYER   1   ROW     5   COL     4   RATE    -84.6250    
 BOUNDARY     65   LAYER   1   ROW     5   COL     5   RATE    -84.6250    
 BOUNDARY     66   LAYER   1   ROW     5   COL     6   RATE    -84.6250    
 BOUNDARY     67   LAYER   1   ROW     5   COL     7   RATE    -84.6250    
 BOUNDARY     68   LAYER   1   ROW     5   COL     8   RATE    -84.6250    
 BOUNDARY     69   LAYER   1   ROW     5   COL     9   RATE    -84.6250    
 BOUNDARY     70   LAYER   1   ROW     5   COL    10   RATE    -84.6250    
 BOUNDARY     71   LAYER   1   ROW     5   COL    11   RATE    -84.6250    
 BOUNDARY     72   LAYER   1   ROW     5   COL    12   RATE    -77.7947    
 BOUNDARY     73   LAYER   1   ROW     5   COL    13   RATE    -7.24250    
 BOUNDARY     74   LAYER   1   ROW     5   COL    14   RATE     0.00000    
 BOUNDARY     75   LAYER   1   ROW     5   COL    15   RATE     0.00000    
 BOUNDARY     76   LAYER   1   ROW     6   COL     1   RATE     0.00000    
 BOUNDARY     77   LAYER   1   ROW     6   COL     2   RATE    -7.48612    
 BOUNDARY     78   LAYER   1   ROW     6   COL     3   RATE    -84.6250    
 BOUNDARY     79   LAYER   1   ROW     6   COL     4   RATE    -84.6250    
 BOUNDARY     80   LAYER   1   ROW     6   COL     5   RATE    -84.6250    
 BOUNDARY     81   LAYER   1   ROW     6   COL     6   RATE    -84.6250    
 BOUNDARY     82   LAYER   1   ROW     6   COL     7   RATE    -84.6250    
 BOUNDARY     83   LAYER   1   ROW     6   COL     8   RATE    -84.6250    
 BOUNDARY     84   LAYER   1   ROW     6   COL     9   RATE    -84.6250    
 BOUNDARY     85   LAYER   1   ROW     6   COL    10   RATE    -84.6250    
 BOUNDARY     86   LAYER   1   ROW     6   COL    11   RATE    -84.6250    
 BOUNDARY     87   LAYER   1   ROW     6   COL    12   RATE    -80.5456    
 BOUNDARY     88   LAYER   1   ROW     6   COL    13   RATE    -7.19710    
 BOUNDARY     89   LAYER   1   ROW     6   COL    14   RATE     0.00000    
 BOUNDARY     90   LAYER   1   ROW     6   COL    15   RATE     0.00000    
 BOUNDARY     91   LAYER   1   ROW     7   COL     1   RATE     0.00000    
 BOUNDARY     92   LAYER   1   ROW     7   COL     2   RATE    -4.22590    
 BOUNDARY     93   LAYER   1   ROW     7   COL     3   RATE    -84.6250    
 BOUNDARY     94   LAYER   1   ROW     7   COL     4   RATE    -84.6250    
 BOUNDARY     95   LAYER   1   ROW     7   COL     5   RATE    -84.6250    
 BOUNDARY     96   LAYER   1   ROW     7   COL     6   RATE    -84.6250    
 BOUNDARY     97   LAYER   1   ROW     7   COL     7   RATE    -84.6250    
 BOUNDARY     98   LAYER   1   ROW     7   COL     8   RATE    -84.6250    
 BOUNDARY     99   LAYER   1   ROW     7   COL     9   RATE    -84.6250    
 BOUNDARY    100   LAYER   1   ROW     7   COL    10   RATE    -84.6250    
 BOUNDARY    101   LAYER   1   ROW     7   COL    11   RATE    -84.6250    
 BOUNDARY    102   LAYER   1   ROW     7   COL    12   RATE    -80.2003    
 BOUNDARY    103   LAYER   1   ROW     7   COL    13   RATE    -6.61720    
 BOUNDARY    104   LAYER   1   ROW     7   COL    14   RATE     0.00000    
 BOUNDARY    105   LAYER   1   ROW     7   COL    15   RATE     0.00000    
 BOUNDARY    106   LAYER   1   ROW     8   COL     1   RATE    -1.85614    
 BOUNDARY    107   LAYER   1   ROW     8   COL     2   RATE    -22.0448    
 BOUNDARY    108   LAYER   1   ROW     8   COL     3   RATE    -84.6250    
 BOUNDARY    109   LAYER   1   ROW     8   COL     4   RATE    -84.6250    
 BOUNDARY    110   LAYER   1   ROW     8   COL     5   RATE    -84.6250    
 BOUNDARY    111   LAYER   1   ROW     8   COL     6   RATE    -84.6250    
 BOUNDARY    112   LAYER   1   ROW     8   COL     7   RATE    -84.6250    
 BOUNDARY    113   LAYER   1   ROW     8   COL     8   RATE    -84.6250    
 BOUNDARY    114   LAYER   1   ROW     8   COL     9   RATE    -84.6250    
 BOUNDARY    115   LAYER   1   ROW     8   COL    10   RATE    -84.6250    
 BOUNDARY    116   LAYER   1   ROW     8   COL    11   RATE    -84.6250    
 BOUNDARY    117   LAYER   1   ROW     8   COL    12   RATE    -82.4501    
 BOUNDARY    118   LAYER   1   ROW     8   COL    13   RATE    -6.67348    
 BOUNDARY    119   LAYER   1   ROW     8   COL    14   RATE     0.00000    
 BOUNDARY    120   LAYER   1   ROW     8   COL    15   RATE     0.00000    
 BOUNDARY    121   LAYER   1   ROW     9   COL     1   RATE    -42.3900    
 BOUNDARY    122   LAYER   1   ROW     9   COL     2   RATE    -84.6250    
 BOUNDARY    123   LAYER   1   ROW     9   COL     3   RATE    -84.6250    
 BOUNDARY    124   LAYER   1   ROW     9   COL     4   RATE    -84.6250    
 BOUNDARY    125   LAYER   1   ROW     9   COL     5   RATE    -84.6250    
 BOUNDARY    126   LAYER   1   ROW     9   COL     6   RATE    -84.6250    
 BOUNDARY    127   LAYER   1   ROW     9   COL     7   RATE    -84.6250    
 BOUNDARY    128   LAYER   1   ROW     9   COL     8   RATE    -84.6250    
 BOUNDARY    129   LAYER   1   ROW     9   COL     9   RATE    -84.6250    
 BOUNDARY    130   LAYER   1   ROW     9   COL    10   RATE    -84.6250    
 BOUNDARY    131   LAYER   1   ROW     9   COL    11   RATE    -84.6250    
 BOUNDARY    132   LAYER   1   ROW     9   COL    12   RATE    -84.6250    
 BOUNDARY    133   LAYER   1   ROW     9   COL    13   RATE    -7.41881    
 BOUNDARY    134   LAYER   1   ROW     9   COL    14   RATE     0.00000    
 BOUNDARY    135   LAYER   1   ROW     9   COL    15   RATE     0.00000    
 BOUNDARY    136   LAYER   1   ROW    10   COL     1   RATE    -84.6250    
 BOUNDARY    137   LAYER   1   ROW    10   COL     2   RATE    -84.6250    
 BOUNDARY    138   LAYER   1   ROW    10   COL     3   RATE    -84.6250    
 BOUNDARY    139   LAYER   1   ROW    10   COL     4   RATE    -84.6250    
 BOUNDARY    140   LAYER   1   ROW    10   COL     5   RATE    -84.6250    
 BOUNDARY    141   LAYER   1   ROW    10   COL     6   RATE    -84.6250    
 BOUNDARY    142   LAYER   1   ROW    10   COL     7   RATE    -84.6250    
 BOUNDARY    143   LAYER   1   ROW    10   COL     8   RATE    -84.6250    
 BOUNDARY    144   LAYER   1   ROW    10   COL     9   RATE    -84.6250    
 BOUNDARY    145   LAYER   1   ROW    10   COL    10   RATE    -84.6250    
 BOUNDARY    146   LAYER   1   ROW    10   COL    11   RATE    -84.6250    
 BOUNDARY    147   LAYER   1   ROW    10   COL    12   RATE    -84.6250    
 BOUNDARY    148   LAYER   1   ROW    10   COL    13   RATE    -7.89490    
 BOUNDARY    149   LAYER   1   ROW    10   COL    14   RATE     0.00000    
 BOUNDARY    150   LAYER   1   ROW    10   COL    15   RATE     0.00000    
1
  HEAD             IN LAYER   1 AT END OF TIME STEP 153 IN STRESS PERIOD    7
  ---------------------------------------------------------------------------

           1          2          3          4          5          6          7          8
 ........................................................................................
   1   133.35177  136.84616  140.93435  144.52809  147.24587  149.00887  149.81461  149.66377
   2   127.75686  134.47210  140.08069  144.24590  147.17044  149.01187  149.85314  149.71641
   3   110.47984  130.84134  139.14802  143.99798  147.14071  149.07386  149.97977  149.85460
   4   126.43799  133.68113  139.74930  144.19737  147.29103  149.27099  150.29215  150.17349
   5   130.40030  135.22899  140.35948  144.53783  147.57153  149.57113  150.60445  150.46697
   6   127.11233  134.42311  140.45643  144.86223  147.94722  149.97432  150.95038  150.76453
   7   112.01827  132.49684  140.65503  145.36988  148.46928  150.46550  151.32356  151.06387
   8   131.09668  137.40750  142.56472  146.36570  149.12231  150.94039  151.67953  151.34671
   9   138.57405  141.24146  144.46010  147.37107  149.74204  151.34760  151.97183  151.58404
  10   141.47420  143.13191  145.53020  147.98448  150.16215  151.59592  152.13979  151.71466
1
  HEAD             IN LAYER   1 AT END OF TIME STEP 153 IN STRESS PERIOD    7
  ---------------------------------------------------------------------------

           9         10         11         12         13         14         15
 .............................................................................
   1   148.54015  146.39183  143.10467  138.44646  131.79771  121.98469  106.21109
   2   148.60425  146.48102  143.24594  138.69353  132.27899  122.87489  107.33286
   3   148.73266  146.63878  143.48369  139.10913  133.15375  124.99118  114.09572
   4   148.93950  146.83445  143.73771  139.50090  133.85611  126.21628  115.55361
   5   149.18737  147.03964  143.95103  139.76939  134.27918  127.03090  117.78895
   6   149.44055  147.23007  144.09772  139.86227  134.25235  126.70994  117.13611
   7   149.68563  147.40221  144.20096  139.85061  133.90972  125.17460  110.50059
   8   149.92554  147.56426  144.31396  139.92657  133.94297  125.12522  110.34948
   9   150.16866  147.71960  144.43968  140.10800  134.38335  126.54435  116.08238
  10   150.28510  147.81217  144.52281  140.23836  134.66464  127.16059  116.98178
1
  HEAD             IN LAYER   2 AT END OF TIME STEP 153 IN STRESS PERIOD    7
  ---------------------------------------------------------------------------

           1          2          3          4          5          6          7          8
 ........................................................................................
   1   134.23273  136.56261  139.80382  142.94919  145.48371  147.18529  147.96455  147.77993
   2   132.34672  135.51415  139.34106  142.77919  145.44572  147.20693  148.01500  147.84406
   3   129.59113  134.33154  138.90379  142.65604  145.46094  147.29048  148.13695  147.98112
   4   131.65332  135.06620  139.17080  142.81800  145.62203  147.47644  148.35005  148.19729
   5   132.91289  135.80584  139.61260  143.14245  145.90865  147.75541  148.62282  148.45273
   6   132.53875  135.92466  139.96501  143.54217  146.29322  148.11288  148.94106  148.73032
   7   131.49519  136.14485  140.54248  144.11738  146.79071  148.53361  149.28623  149.01395
   8   135.54447  138.44684  141.89454  144.97691  147.38462  148.97171  149.62183  149.27996
   9   138.92069  140.73011  143.28562  145.82520  147.93250  149.34778  149.89667  149.49461
  10   140.66782  142.01988  144.11475  146.34062  148.26620  149.56921  150.05344  149.61471
1
  HEAD             IN LAYER   2 AT END OF TIME STEP 153 IN STRESS PERIOD    7
  ---------------------------------------------------------------------------

           9         10         11         12         13         14         15
 .............................................................................
   1   146.60080  144.38817  141.08726  136.64341  131.07140  124.74477  119.15866
   2   146.67556  144.48423  141.22897  136.87459  131.46428  125.38313  120.04397
   3   146.81985  144.65559  141.46890  137.25684  132.12206  126.53240  121.94330
   4   147.02170  144.86775  141.73457  137.64036  132.72035  127.45047  123.17496
   5   147.25265  145.08579  141.96773  137.92432  133.10215  127.99004  123.93942
   6   147.49074  145.28789  142.14280  138.06963  133.18702  127.94652  123.72617
   7   147.72282  145.47052  142.27685  138.13344  133.09889  127.50007  122.58533
   8   147.93767  145.63732  142.40701  138.23540  133.17163  127.53134  122.56993
   9   148.11538  145.77792  142.53328  138.38968  133.43738  128.08595  123.70123
  10   148.21378  145.85946  142.61315  138.49935  133.63160  128.44392  124.25521

 HEAD WILL BE SAVED ON UNIT 1017 AT END OF TIME STEP  153, STRESS PERIOD    7

 IBOUND WILL BE SAVED ON UNIT 1018 AT END OF TIME STEP  153, STRESS PERIOD    7
1
  VOLUME BUDGET FOR ENTIRE MODEL AT END OF TIME STEP  153, STRESS PERIOD   7
  ------------------------------------------------------------------------------

     CUMULATIVE VOLUME      L**3       RATES FOR THIS TIME STEP      L**3/T
     ------------------                 ------------------------

           IN:                                      IN:
           ---                                      ---
             STORAGE =       81967.0486               STORAGE =        1850.5574
    WELLS NEAR RIVER =           0.0000      WELLS NEAR RIVER =           0.0000
               RIVER =           0.0000                 RIVER =           0.0000
           GHB LAKES =           0.0000             GHB LAKES =           0.0000
            RECHARGE =    33640625.0000              RECHARGE =       88125.0000
             ET SEGS =           0.0000               ET SEGS =           0.0000

            TOTAL IN =    33722592.0486              TOTAL IN =       89975.5574

          OUT:                                     OUT:
          ----                                     ----
             STORAGE =     8726128.9609               STORAGE =        7017.7187
    WELLS NEAR RIVER =        5570.0000      WELLS NEAR RIVER =           0.0000
               RIVER =    12278993.3956                 RIVER =       42054.4793
           GHB LAKES =     9439064.3115             GHB LAKES =       32173.0157
            RECHARGE =           0.0000              RECHARGE =           0.0000
             ET SEGS =     3272835.3952               ET SEGS =        8730.3438

           TOTAL OUT =    33722592.0632             TOTAL OUT =       89975.5575

            IN - OUT =      -1.4597E-02              IN - OUT =      -7.2567E-05

 PERCENT DISCREPANCY =          -0.00     PERCENT DISCREPANCY =          -0.00






         TIME SUMMARY AT END OF TIME STEP  153 IN STRESS PERIOD    7
                    SECONDS     MINUTES      HOURS       DAYS        YEARS
                    -----------------------------------------------------------
   TIME STEP LENGTH  86400.      1440.0      24.000     1.00000     2.73785E-03
 STRESS PERIOD TIME 1.32192E+07 2.20320E+05  3672.0      153.00     0.41889    
         TOTAL TIME 2.63520E+07 4.39200E+05  7320.0      305.00     0.83504    
RIV   no.    1 value from time series:   101.00     for time:  305.0     to  306.0    
RIV   no.    2 value from time series:   101.00     for time:  305.0     to  306.0    
RIV   no.    3 value from time series:   111.50     for time:  305.0     to  306.0    
RIV   no.    4 value from time series:   111.50     for time:  305.0     to  306.0    
RIV   no.    5 value from time series:   115.10     for time:  305.0     to  306.0    
RIV   no.    6 value from time series:   115.10     for time:  305.0     to  306.0    
RIV   no.    7 value from time series:   104.00     for time:  305.0     to  306.0    
RIV   no.    8 value from time series:   104.00     for time:  305.0     to  306.0    
RIV   no.    9 value from time series:   113.50     for time:  305.0     to  306.0    
RIV   no.   10 value from time series:   113.50     for time:  305.0     to  306.0    
RIV   no.    1 value from time series:   101.00     for time:  305.0     to  306.0    
RIV   no.    2 value from time series:   101.00     for time:  305.0     to  306.0    
RIV   no.    3 value from time series:   111.50     for time:  305.0     to  306.0    
RIV   no.    4 value from time series:   111.50     for time:  305.0     to  306.0    
RIV   no.    5 value from time series:   115.10     for time:  305.0     to  306.0    
RIV   no.    6 value from time series:   115.10     for time:  305.0     to  306.0    
RIV   no.    7 value from time series:   104.00     for time:  305.0     to  306.0    
RIV   no.    8 value from time series:   104.00     for time:  305.0     to  306.0    
RIV   no.    9 value from time series:   113.50     for time:  305.0     to  306.0    
RIV   no.   10 value from time series:   113.50     for time:  305.0     to  306.0    

 NO OUTPUT CONTROL FOR STRESS PERIOD    7   TIME STEP  154
RIV   no.    1 value from time series:   101.00     for time:  306.0     to  307.0    
RIV   no.    2 value from time series:   101.00     for time:  306.0     to  307.0    
RIV   no.    3 value from time series:   111.50     for time:  306.0     to  307.0    
RIV   no.    4 value from time series:   111.50     for time:  306.0     to  307.0    
RIV   no.    5 value from time series:   115.10     for time:  306.0     to  307.0    
RIV   no.    6 value from time series:   115.10     for time:  306.0     to  307.0    
RIV   no.    7 value from time series:   104.00     for time:  306.0     to  307.0    
RIV   no.    8 value from time series:   104.00     for time:  306.0     to  307.0    
RIV   no.    9 value from time series:   113.50     for time:  306.0     to  307.0    
RIV   no.   10 value from time series:   113.50     for time:  306.0     to  307.0    
RIV   no.    1 value from time series:   101.00     for time:  306.0     to  307.0    
RIV   no.    2 value from time series:   101.00     for time:  306.0     to  307.0    
RIV   no.    3 value from time series:   111.50     for time:  306.0     to  307.0    
RIV   no.    4 value from time series:   111.50     for time:  306.0     to  307.0    
RIV   no.    5 value from time series:   115.10     for time:  306.0     to  307.0    
RIV   no.    6 value from time series:   115.10     for time:  306.0     to  307.0    
RIV   no.    7 value from time series:   104.00     for time:  306.0     to  307.0    
RIV   no.    8 value from time series:   104.00     for time:  306.0     to  307.0    
RIV   no.    9 value from time series:   113.50     for time:  306.0     to  307.0    
RIV   no.   10 value from time series:   113.50     for time:  306.0     to  307.0    

 NO OUTPUT CONTROL FOR STRESS PERIOD    7   TIME STEP  155
RIV   no.    1 value from time series:   101.00     for time:  307.0     to  308.0    
RIV   no.    2 value from time series:   101.00     for time:  307.0     to  308.0    
RIV   no.    3 value from time series:   111.50     for time:  307.0     to  308.0    
RIV   no.    4 value from time series:   111.50     for time:  307.0     to  308.0    
RIV   no.    5 value from time series:   115.10     for time:  307.0     to  308.0    
RIV   no.    6 value from time series:   115.10     for time:  307.0     to  308.0    
RIV   no.    7 value from time series:   104.00     for time:  307.0     to  308.0    
RIV   no.    8 value from time series:   104.00     for time:  307.0     to  308.0    
RIV   no.    9 value from time series:   113.50     for time:  307.0     to  308.0    
RIV   no.   10 value from time series:   113.50     for time:  307.0     to  308.0    
RIV   no.    1 value from time series:   101.00     for time:  307.0     to  308.0    
RIV   no.    2 value from time series:   101.00     for time:  307.0     to  308.0    
RIV   no.    3 value from time series:   111.50     for time:  307.0     to  308.0    
RIV   no.    4 value from time series:   111.50     for time:  307.0     to  308.0    
RIV   no.    5 value from time series:   115.10     for time:  307.0     to  308.0    
RIV   no.    6 value from time series:   115.10     for time:  307.0     to  308.0    
RIV   no.    7 value from time series:   104.00     for time:  307.0     to  308.0    
RIV   no.    8 value from time series:   104.00     for time:  307.0     to  308.0    
RIV   no.    9 value from time series:   113.50     for time:  307.0     to  308.0    
RIV   no.   10 value from time series:   113.50     for time:  307.0     to  308.0    

 NO OUTPUT CONTROL FOR STRESS PERIOD    7   TIME STEP  156
RIV   no.    1 value from time series:   101.00     for time:  308.0     to  309.0    
RIV   no.    2 value from time series:   101.00     for time:  308.0     to  309.0    
RIV   no.    3 value from time series:   111.50     for time:  308.0     to  309.0    
RIV   no.    4 value from time series:   111.50     for time:  308.0     to  309.0    
RIV   no.    5 value from time series:   115.10     for time:  308.0     to  309.0    
RIV   no.    6 value from time series:   115.10     for time:  308.0     to  309.0    
RIV   no.    7 value from time series:   104.00     for time:  308.0     to  309.0    
RIV   no.    8 value from time series:   104.00     for time:  308.0     to  309.0    
RIV   no.    9 value from time series:   113.50     for time:  308.0     to  309.0    
RIV   no.   10 value from time series:   113.50     for time:  308.0     to  309.0    
RIV   no.    1 value from time series:   101.00     for time:  308.0     to  309.0    
RIV   no.    2 value from time series:   101.00     for time:  308.0     to  309.0    
RIV   no.    3 value from time series:   111.50     for time:  308.0     to  309.0    
RIV   no.    4 value from time series:   111.50     for time:  308.0     to  309.0    
RIV   no.    5 value from time series:   115.10     for time:  308.0     to  309.0    
RIV   no.    6 value from time series:   115.10     for time:  308.0     to  309.0    
RIV   no.    7 value from time series:   104.00     for time:  308.0     to  309.0    
RIV   no.    8 value from time series:   104.00     for time:  308.0     to  309.0    
RIV   no.    9 value from time series:   113.50     for time:  308.0     to  309.0    
RIV   no.   10 value from time series:   113.50     for time:  308.0     to  309.0    

 NO OUTPUT CONTROL FOR STRESS PERIOD    7   TIME STEP  157
RIV   no.    1 value from time series:   101.00     for time:  309.0     to  310.0    
RIV   no.    2 value from time series:   101.00     for time:  309.0     to  310.0    
RIV   no.    3 value from time series:   111.50     for time:  309.0     to  310.0    
RIV   no.    4 value from time series:   111.50     for time:  309.0     to  310.0    
RIV   no.    5 value from time series:   115.10     for time:  309.0     to  310.0    
RIV   no.    6 value from time series:   115.10     for time:  309.0     to  310.0    
RIV   no.    7 value from time series:   104.00     for time:  309.0     to  310.0    
RIV   no.    8 value from time series:   104.00     for time:  309.0     to  310.0    
RIV   no.    9 value from time series:   113.50     for time:  309.0     to  310.0    
RIV   no.   10 value from time series:   113.50     for time:  309.0     to  310.0    
RIV   no.    1 value from time series:   101.00     for time:  309.0     to  310.0    
RIV   no.    2 value from time series:   101.00     for time:  309.0     to  310.0    
RIV   no.    3 value from time series:   111.50     for time:  309.0     to  310.0    
RIV   no.    4 value from time series:   111.50     for time:  309.0     to  310.0    
RIV   no.    5 value from time series:   115.10     for time:  309.0     to  310.0    
RIV   no.    6 value from time series:   115.10     for time:  309.0     to  310.0    
RIV   no.    7 value from time series:   104.00     for time:  309.0     to  310.0    
RIV   no.    8 value from time series:   104.00     for time:  309.0     to  310.0    
RIV   no.    9 value from time series:   113.50     for time:  309.0     to  310.0    
RIV   no.   10 value from time series:   113.50     for time:  309.0     to  310.0    

 NO OUTPUT CONTROL FOR STRESS PERIOD    7   TIME STEP  158
RIV   no.    1 value from time series:   101.00     for time:  310.0     to  311.0    
RIV   no.    2 value from time series:   101.00     for time:  310.0     to  311.0    
RIV   no.    3 value from time series:   111.50     for time:  310.0     to  311.0    
RIV   no.    4 value from time series:   111.50     for time:  310.0     to  311.0    
RIV   no.    5 value from time series:   115.10     for time:  310.0     to  311.0    
RIV   no.    6 value from time series:   115.10     for time:  310.0     to  311.0    
RIV   no.    7 value from time series:   104.00     for time:  310.0     to  311.0    
RIV   no.    8 value from time series:   104.00     for time:  310.0     to  311.0    
RIV   no.    9 value from time series:   113.50     for time:  310.0     to  311.0    
RIV   no.   10 value from time series:   113.50     for time:  310.0     to  311.0    
RIV   no.    1 value from time series:   101.00     for time:  310.0     to  311.0    
RIV   no.    2 value from time series:   101.00     for time:  310.0     to  311.0    
RIV   no.    3 value from time series:   111.50     for time:  310.0     to  311.0    
RIV   no.    4 value from time series:   111.50     for time:  310.0     to  311.0    
RIV   no.    5 value from time series:   115.10     for time:  310.0     to  311.0    
RIV   no.    6 value from time series:   115.10     for time:  310.0     to  311.0    
RIV   no.    7 value from time series:   104.00     for time:  310.0     to  311.0    
RIV   no.    8 value from time series:   104.00     for time:  310.0     to  311.0    
RIV   no.    9 value from time series:   113.50     for time:  310.0     to  311.0    
RIV   no.   10 value from time series:   113.50     for time:  310.0     to  311.0    

 NO OUTPUT CONTROL FOR STRESS PERIOD    7   TIME STEP  159
RIV   no.    1 value from time series:   101.00     for time:  311.0     to  312.0    
RIV   no.    2 value from time series:   101.00     for time:  311.0     to  312.0    
RIV   no.    3 value from time series:   111.50     for time:  311.0     to  312.0    
RIV   no.    4 value from time series:   111.50     for time:  311.0     to  312.0    
RIV   no.    5 value from time series:   115.10     for time:  311.0     to  312.0    
RIV   no.    6 value from time series:   115.10     for time:  311.0     to  312.0    
RIV   no.    7 value from time series:   104.00     for time:  311.0     to  312.0    
RIV   no.    8 value from time series:   104.00     for time:  311.0     to  312.0    
RIV   no.    9 value from time series:   113.50     for time:  311.0     to  312.0    
RIV   no.   10 value from time series:   113.50     for time:  311.0     to  312.0    
RIV   no.    1 value from time series:   101.00     for time:  311.0     to  312.0    
RIV   no.    2 value from time series:   101.00     for time:  311.0     to  312.0    
RIV   no.    3 value from time series:   111.50     for time:  311.0     to  312.0    
RIV   no.    4 value from time series:   111.50     for time:  311.0     to  312.0    
RIV   no.    5 value from time series:   115.10     for time:  311.0     to  312.0    
RIV   no.    6 value from time series:   115.10     for time:  311.0     to  312.0    
RIV   no.    7 value from time series:   104.00     for time:  311.0     to  312.0    
RIV   no.    8 value from time series:   104.00     for time:  311.0     to  312.0    
RIV   no.    9 value from time series:   113.50     for time:  311.0     to  312.0    
RIV   no.   10 value from time series:   113.50     for time:  311.0     to  312.0    

 NO OUTPUT CONTROL FOR STRESS PERIOD    7   TIME STEP  160
RIV   no.    1 value from time series:   101.00     for time:  312.0     to  313.0    
RIV   no.    2 value from time series:   101.00     for time:  312.0     to  313.0    
RIV   no.    3 value from time series:   111.50     for time:  312.0     to  313.0    
RIV   no.    4 value from time series:   111.50     for time:  312.0     to  313.0    
RIV   no.    5 value from time series:   115.10     for time:  312.0     to  313.0    
RIV   no.    6 value from time series:   115.10     for time:  312.0     to  313.0    
RIV   no.    7 value from time series:   104.00     for time:  312.0     to  313.0    
RIV   no.    8 value from time series:   104.00     for time:  312.0     to  313.0    
RIV   no.    9 value from time series:   113.50     for time:  312.0     to  313.0    
RIV   no.   10 value from time series:   113.50     for time:  312.0     to  313.0    
RIV   no.    1 value from time series:   101.00     for time:  312.0     to  313.0    
RIV   no.    2 value from time series:   101.00     for time:  312.0     to  313.0    
RIV   no.    3 value from time series:   111.50     for time:  312.0     to  313.0    
RIV   no.    4 value from time series:   111.50     for time:  312.0     to  313.0    
RIV   no.    5 value from time series:   115.10     for time:  312.0     to  313.0    
RIV   no.    6 value from time series:   115.10     for time:  312.0     to  313.0    
RIV   no.    7 value from time series:   104.00     for time:  312.0     to  313.0    
RIV   no.    8 value from time series:   104.00     for time:  312.0     to  313.0    
RIV   no.    9 value from time series:   113.50     for time:  312.0     to  313.0    
RIV   no.   10 value from time series:   113.50     for time:  312.0     to  313.0    

 NO OUTPUT CONTROL FOR STRESS PERIOD    7   TIME STEP  161
RIV   no.    1 value from time series:   101.00     for time:  313.0     to  314.0    
RIV   no.    2 value from time series:   101.00     for time:  313.0     to  314.0    
RIV   no.    3 value from time series:   111.50     for time:  313.0     to  314.0    
RIV   no.    4 value from time series:   111.50     for time:  313.0     to  314.0    
RIV   no.    5 value from time series:   115.10     for time:  313.0     to  314.0    
RIV   no.    6 value from time series:   115.10     for time:  313.0     to  314.0    
RIV   no.    7 value from time series:   104.00     for time:  313.0     to  314.0    
RIV   no.    8 value from time series:   104.00     for time:  313.0     to  314.0    
RIV   no.    9 value from time series:   113.50     for time:  313.0     to  314.0    
RIV   no.   10 value from time series:   113.50     for time:  313.0     to  314.0    
RIV   no.    1 value from time series:   101.00     for time:  313.0     to  314.0    
RIV   no.    2 value from time series:   101.00     for time:  313.0     to  314.0    
RIV   no.    3 value from time series:   111.50     for time:  313.0     to  314.0    
RIV   no.    4 value from time series:   111.50     for time:  313.0     to  314.0    
RIV   no.    5 value from time series:   115.10     for time:  313.0     to  314.0    
RIV   no.    6 value from time series:   115.10     for time:  313.0     to  314.0    
RIV   no.    7 value from time series:   104.00     for time:  313.0     to  314.0    
RIV   no.    8 value from time series:   104.00     for time:  313.0     to  314.0    
RIV   no.    9 value from time series:   113.50     for time:  313.0     to  314.0    
RIV   no.   10 value from time series:   113.50     for time:  313.0     to  314.0    

 NO OUTPUT CONTROL FOR STRESS PERIOD    7   TIME STEP  162
RIV   no.    1 value from time series:   101.00     for time:  314.0     to  315.0    
RIV   no.    2 value from time series:   101.00     for time:  314.0     to  315.0    
RIV   no.    3 value from time series:   111.50     for time:  314.0     to  315.0    
RIV   no.    4 value from time series:   111.50     for time:  314.0     to  315.0    
RIV   no.    5 value from time series:   115.10     for time:  314.0     to  315.0    
RIV   no.    6 value from time series:   115.10     for time:  314.0     to  315.0    
RIV   no.    7 value from time series:   104.00     for time:  314.0     to  315.0    
RIV   no.    8 value from time series:   104.00     for time:  314.0     to  315.0    
RIV   no.    9 value from time series:   113.50     for time:  314.0     to  315.0    
RIV   no.   10 value from time series:   113.50     for time:  314.0     to  315.0    
RIV   no.    1 value from time series:   101.00     for time:  314.0     to  315.0    
RIV   no.    2 value from time series:   101.00     for time:  314.0     to  315.0    
RIV   no.    3 value from time series:   111.50     for time:  314.0     to  315.0    
RIV   no.    4 value from time series:   111.50     for time:  314.0     to  315.0    
RIV   no.    5 value from time series:   115.10     for time:  314.0     to  315.0    
RIV   no.    6 value from time series:   115.10     for time:  314.0     to  315.0    
RIV   no.    7 value from time series:   104.00     for time:  314.0     to  315.0    
RIV   no.    8 value from time series:   104.00     for time:  314.0     to  315.0    
RIV   no.    9 value from time series:   113.50     for time:  314.0     to  315.0    
RIV   no.   10 value from time series:   113.50     for time:  314.0     to  315.0    

 NO OUTPUT CONTROL FOR STRESS PERIOD    7   TIME STEP  163
RIV   no.    1 value from time series:   101.00     for time:  315.0     to  316.0    
RIV   no.    2 value from time series:   101.00     for time:  315.0     to  316.0    
RIV   no.    3 value from time series:   111.50     for time:  315.0     to  316.0    
RIV   no.    4 value from time series:   111.50     for time:  315.0     to  316.0    
RIV   no.    5 value from time series:   115.10     for time:  315.0     to  316.0    
RIV   no.    6 value from time series:   115.10     for time:  315.0     to  316.0    
RIV   no.    7 value from time series:   104.00     for time:  315.0     to  316.0    
RIV   no.    8 value from time series:   104.00     for time:  315.0     to  316.0    
RIV   no.    9 value from time series:   113.50     for time:  315.0     to  316.0    
RIV   no.   10 value from time series:   113.50     for time:  315.0     to  316.0    
RIV   no.    1 value from time series:   101.00     for time:  315.0     to  316.0    
RIV   no.    2 value from time series:   101.00     for time:  315.0     to  316.0    
RIV   no.    3 value from time series:   111.50     for time:  315.0     to  316.0    
RIV   no.    4 value from time series:   111.50     for time:  315.0     to  316.0    
RIV   no.    5 value from time series:   115.10     for time:  315.0     to  316.0    
RIV   no.    6 value from time series:   115.10     for time:  315.0     to  316.0    
RIV   no.    7 value from time series:   104.00     for time:  315.0     to  316.0    
RIV   no.    8 value from time series:   104.00     for time:  315.0     to  316.0    
RIV   no.    9 value from time series:   113.50     for time:  315.0     to  316.0    
RIV   no.   10 value from time series:   113.50     for time:  315.0     to  316.0    

 NO OUTPUT CONTROL FOR STRESS PERIOD    7   TIME STEP  164
RIV   no.    1 value from time series:   101.00     for time:  316.0     to  317.0    
RIV   no.    2 value from time series:   101.00     for time:  316.0     to  317.0    
RIV   no.    3 value from time series:   111.50     for time:  316.0     to  317.0    
RIV   no.    4 value from time series:   111.50     for time:  316.0     to  317.0    
RIV   no.    5 value from time series:   115.10     for time:  316.0     to  317.0    
RIV   no.    6 value from time series:   115.10     for time:  316.0     to  317.0    
RIV   no.    7 value from time series:   104.00     for time:  316.0     to  317.0    
RIV   no.    8 value from time series:   104.00     for time:  316.0     to  317.0    
RIV   no.    9 value from time series:   113.50     for time:  316.0     to  317.0    
RIV   no.   10 value from time series:   113.50     for time:  316.0     to  317.0    
RIV   no.    1 value from time series:   101.00     for time:  316.0     to  317.0    
RIV   no.    2 value from time series:   101.00     for time:  316.0     to  317.0    
RIV   no.    3 value from time series:   111.50     for time:  316.0     to  317.0    
RIV   no.    4 value from time series:   111.50     for time:  316.0     to  317.0    
RIV   no.    5 value from time series:   115.10     for time:  316.0     to  317.0    
RIV   no.    6 value from time series:   115.10     for time:  316.0     to  317.0    
RIV   no.    7 value from time series:   104.00     for time:  316.0     to  317.0    
RIV   no.    8 value from time series:   104.00     for time:  316.0     to  317.0    
RIV   no.    9 value from time series:   113.50     for time:  316.0     to  317.0    
RIV   no.   10 value from time series:   113.50     for time:  316.0     to  317.0    

 NO OUTPUT CONTROL FOR STRESS PERIOD    7   TIME STEP  165
RIV   no.    1 value from time series:   101.00     for time:  317.0     to  318.0    
RIV   no.    2 value from time series:   101.00     for time:  317.0     to  318.0    
RIV   no.    3 value from time series:   111.50     for time:  317.0     to  318.0    
RIV   no.    4 value from time series:   111.50     for time:  317.0     to  318.0    
RIV   no.    5 value from time series:   115.10     for time:  317.0     to  318.0    
RIV   no.    6 value from time series:   115.10     for time:  317.0     to  318.0    
RIV   no.    7 value from time series:   104.00     for time:  317.0     to  318.0    
RIV   no.    8 value from time series:   104.00     for time:  317.0     to  318.0    
RIV   no.    9 value from time series:   113.50     for time:  317.0     to  318.0    
RIV   no.   10 value from time series:   113.50     for time:  317.0     to  318.0    
RIV   no.    1 value from time series:   101.00     for time:  317.0     to  318.0    
RIV   no.    2 value from time series:   101.00     for time:  317.0     to  318.0    
RIV   no.    3 value from time series:   111.50     for time:  317.0     to  318.0    
RIV   no.    4 value from time series:   111.50     for time:  317.0     to  318.0    
RIV   no.    5 value from time series:   115.10     for time:  317.0     to  318.0    
RIV   no.    6 value from time series:   115.10     for time:  317.0     to  318.0    
RIV   no.    7 value from time series:   104.00     for time:  317.0     to  318.0    
RIV   no.    8 value from time series:   104.00     for time:  317.0     to  318.0    
RIV   no.    9 value from time series:   113.50     for time:  317.0     to  318.0    
RIV   no.   10 value from time series:   113.50     for time:  317.0     to  318.0    

 NO OUTPUT CONTROL FOR STRESS PERIOD    7   TIME STEP  166
RIV   no.    1 value from time series:   101.00     for time:  318.0     to  319.0    
RIV   no.    2 value from time series:   101.00     for time:  318.0     to  319.0    
RIV   no.    3 value from time series:   111.50     for time:  318.0     to  319.0    
RIV   no.    4 value from time series:   111.50     for time:  318.0     to  319.0    
RIV   no.    5 value from time series:   115.10     for time:  318.0     to  319.0    
RIV   no.    6 value from time series:   115.10     for time:  318.0     to  319.0    
RIV   no.    7 value from time series:   104.00     for time:  318.0     to  319.0    
RIV   no.    8 value from time series:   104.00     for time:  318.0     to  319.0    
RIV   no.    9 value from time series:   113.50     for time:  318.0     to  319.0    
RIV   no.   10 value from time series:   113.50     for time:  318.0     to  319.0    
RIV   no.    1 value from time series:   101.00     for time:  318.0     to  319.0    
RIV   no.    2 value from time series:   101.00     for time:  318.0     to  319.0    
RIV   no.    3 value from time series:   111.50     for time:  318.0     to  319.0    
RIV   no.    4 value from time series:   111.50     for time:  318.0     to  319.0    
RIV   no.    5 value from time series:   115.10     for time:  318.0     to  319.0    
RIV   no.    6 value from time series:   115.10     for time:  318.0     to  319.0    
RIV   no.    7 value from time series:   104.00     for time:  318.0     to  319.0    
RIV   no.    8 value from time series:   104.00     for time:  318.0     to  319.0    
RIV   no.    9 value from time series:   113.50     for time:  318.0     to  319.0    
RIV   no.   10 value from time series:   113.50     for time:  318.0     to  319.0    

 NO OUTPUT CONTROL FOR STRESS PERIOD    7   TIME STEP  167
RIV   no.    1 value from time series:   101.00     for time:  319.0     to  320.0    
RIV   no.    2 value from time series:   101.00     for time:  319.0     to  320.0    
RIV   no.    3 value from time series:   111.50     for time:  319.0     to  320.0    
RIV   no.    4 value from time series:   111.50     for time:  319.0     to  320.0    
RIV   no.    5 value from time series:   115.10     for time:  319.0     to  320.0    
RIV   no.    6 value from time series:   115.10     for time:  319.0     to  320.0    
RIV   no.    7 value from time series:   104.00     for time:  319.0     to  320.0    
RIV   no.    8 value from time series:   104.00     for time:  319.0     to  320.0    
RIV   no.    9 value from time series:   113.50     for time:  319.0     to  320.0    
RIV   no.   10 value from time series:   113.50     for time:  319.0     to  320.0    
RIV   no.    1 value from time series:   101.00     for time:  319.0     to  320.0    
RIV   no.    2 value from time series:   101.00     for time:  319.0     to  320.0    
RIV   no.    3 value from time series:   111.50     for time:  319.0     to  320.0    
RIV   no.    4 value from time series:   111.50     for time:  319.0     to  320.0    
RIV   no.    5 value from time series:   115.10     for time:  319.0     to  320.0    
RIV   no.    6 value from time series:   115.10     for time:  319.0     to  320.0    
RIV   no.    7 value from time series:   104.00     for time:  319.0     to  320.0    
RIV   no.    8 value from time series:   104.00     for time:  319.0     to  320.0    
RIV   no.    9 value from time series:   113.50     for time:  319.0     to  320.0    
RIV   no.   10 value from time series:   113.50     for time:  319.0     to  320.0    

 NO OUTPUT CONTROL FOR STRESS PERIOD    7   TIME STEP  168
RIV   no.    1 value from time series:   101.00     for time:  320.0     to  321.0    
RIV   no.    2 value from time series:   101.00     for time:  320.0     to  321.0    
RIV   no.    3 value from time series:   111.50     for time:  320.0     to  321.0    
RIV   no.    4 value from time series:   111.50     for time:  320.0     to  321.0    
RIV   no.    5 value from time series:   115.10     for time:  320.0     to  321.0    
RIV   no.    6 value from time series:   115.10     for time:  320.0     to  321.0    
RIV   no.    7 value from time series:   104.00     for time:  320.0     to  321.0    
RIV   no.    8 value from time series:   104.00     for time:  320.0     to  321.0    
RIV   no.    9 value from time series:   113.50     for time:  320.0     to  321.0    
RIV   no.   10 value from time series:   113.50     for time:  320.0     to  321.0    
RIV   no.    1 value from time series:   101.00     for time:  320.0     to  321.0    
RIV   no.    2 value from time series:   101.00     for time:  320.0     to  321.0    
RIV   no.    3 value from time series:   111.50     for time:  320.0     to  321.0    
RIV   no.    4 value from time series:   111.50     for time:  320.0     to  321.0    
RIV   no.    5 value from time series:   115.10     for time:  320.0     to  321.0    
RIV   no.    6 value from time series:   115.10     for time:  320.0     to  321.0    
RIV   no.    7 value from time series:   104.00     for time:  320.0     to  321.0    
RIV   no.    8 value from time series:   104.00     for time:  320.0     to  321.0    
RIV   no.    9 value from time series:   113.50     for time:  320.0     to  321.0    
RIV   no.   10 value from time series:   113.50     for time:  320.0     to  321.0    

 NO OUTPUT CONTROL FOR STRESS PERIOD    7   TIME STEP  169
RIV   no.    1 value from time series:   101.00     for time:  321.0     to  322.0    
RIV   no.    2 value from time series:   101.00     for time:  321.0     to  322.0    
RIV   no.    3 value from time series:   111.50     for time:  321.0     to  322.0    
RIV   no.    4 value from time series:   111.50     for time:  321.0     to  322.0    
RIV   no.    5 value from time series:   115.10     for time:  321.0     to  322.0    
RIV   no.    6 value from time series:   115.10     for time:  321.0     to  322.0    
RIV   no.    7 value from time series:   104.00     for time:  321.0     to  322.0    
RIV   no.    8 value from time series:   104.00     for time:  321.0     to  322.0    
RIV   no.    9 value from time series:   113.50     for time:  321.0     to  322.0    
RIV   no.   10 value from time series:   113.50     for time:  321.0     to  322.0    
RIV   no.    1 value from time series:   101.00     for time:  321.0     to  322.0    
RIV   no.    2 value from time series:   101.00     for time:  321.0     to  322.0    
RIV   no.    3 value from time series:   111.50     for time:  321.0     to  322.0    
RIV   no.    4 value from time series:   111.50     for time:  321.0     to  322.0    
RIV   no.    5 value from time series:   115.10     for time:  321.0     to  322.0    
RIV   no.    6 value from time series:   115.10     for time:  321.0     to  322.0    
RIV   no.    7 value from time series:   104.00     for time:  321.0     to  322.0    
RIV   no.    8 value from time series:   104.00     for time:  321.0     to  322.0    
RIV   no.    9 value from time series:   113.50     for time:  321.0     to  322.0    
RIV   no.   10 value from time series:   113.50     for time:  321.0     to  322.0    

 NO OUTPUT CONTROL FOR STRESS PERIOD    7   TIME STEP  170
RIV   no.    1 value from time series:   101.00     for time:  322.0     to  323.0    
RIV   no.    2 value from time series:   101.00     for time:  322.0     to  323.0    
RIV   no.    3 value from time series:   111.50     for time:  322.0     to  323.0    
RIV   no.    4 value from time series:   111.50     for time:  322.0     to  323.0    
RIV   no.    5 value from time series:   115.10     for time:  322.0     to  323.0    
RIV   no.    6 value from time series:   115.10     for time:  322.0     to  323.0    
RIV   no.    7 value from time series:   104.00     for time:  322.0     to  323.0    
RIV   no.    8 value from time series:   104.00     for time:  322.0     to  323.0    
RIV   no.    9 value from time series:   113.50     for time:  322.0     to  323.0    
RIV   no.   10 value from time series:   113.50     for time:  322.0     to  323.0    
RIV   no.    1 value from time series:   101.00     for time:  322.0     to  323.0    
RIV   no.    2 value from time series:   101.00     for time:  322.0     to  323.0    
RIV   no.    3 value from time series:   111.50     for time:  322.0     to  323.0    
RIV   no.    4 value from time series:   111.50     for time:  322.0     to  323.0    
RIV   no.    5 value from time series:   115.10     for time:  322.0     to  323.0    
RIV   no.    6 value from time series:   115.10     for time:  322.0     to  323.0    
RIV   no.    7 value from time series:   104.00     for time:  322.0     to  323.0    
RIV   no.    8 value from time series:   104.00     for time:  322.0     to  323.0    
RIV   no.    9 value from time series:   113.50     for time:  322.0     to  323.0    
RIV   no.   10 value from time series:   113.50     for time:  322.0     to  323.0    

 NO OUTPUT CONTROL FOR STRESS PERIOD    7   TIME STEP  171
RIV   no.    1 value from time series:   101.00     for time:  323.0     to  324.0    
RIV   no.    2 value from time series:   101.00     for time:  323.0     to  324.0    
RIV   no.    3 value from time series:   111.50     for time:  323.0     to  324.0    
RIV   no.    4 value from time series:   111.50     for time:  323.0     to  324.0    
RIV   no.    5 value from time series:   115.10     for time:  323.0     to  324.0    
RIV   no.    6 value from time series:   115.10     for time:  323.0     to  324.0    
RIV   no.    7 value from time series:   104.00     for time:  323.0     to  324.0    
RIV   no.    8 value from time series:   104.00     for time:  323.0     to  324.0    
RIV   no.    9 value from time series:   113.50     for time:  323.0     to  324.0    
RIV   no.   10 value from time series:   113.50     for time:  323.0     to  324.0    
RIV   no.    1 value from time series:   101.00     for time:  323.0     to  324.0    
RIV   no.    2 value from time series:   101.00     for time:  323.0     to  324.0    
RIV   no.    3 value from time series:   111.50     for time:  323.0     to  324.0    
RIV   no.    4 value from time series:   111.50     for time:  323.0     to  324.0    
RIV   no.    5 value from time series:   115.10     for time:  323.0     to  324.0    
RIV   no.    6 value from time series:   115.10     for time:  323.0     to  324.0    
RIV   no.    7 value from time series:   104.00     for time:  323.0     to  324.0    
RIV   no.    8 value from time series:   104.00     for time:  323.0     to  324.0    
RIV   no.    9 value from time series:   113.50     for time:  323.0     to  324.0    
RIV   no.   10 value from time series:   113.50     for time:  323.0     to  324.0    

 NO OUTPUT CONTROL FOR STRESS PERIOD    7   TIME STEP  172
RIV   no.    1 value from time series:   101.00     for time:  324.0     to  325.0    
RIV   no.    2 value from time series:   101.00     for time:  324.0     to  325.0    
RIV   no.    3 value from time series:   111.50     for time:  324.0     to  325.0    
RIV   no.    4 value from time series:   111.50     for time:  324.0     to  325.0    
RIV   no.    5 value from time series:   115.10     for time:  324.0     to  325.0    
RIV   no.    6 value from time series:   115.10     for time:  324.0     to  325.0    
RIV   no.    7 value from time series:   104.00     for time:  324.0     to  325.0    
RIV   no.    8 value from time series:   104.00     for time:  324.0     to  325.0    
RIV   no.    9 value from time series:   113.50     for time:  324.0     to  325.0    
RIV   no.   10 value from time series:   113.50     for time:  324.0     to  325.0    
RIV   no.    1 value from time series:   101.00     for time:  324.0     to  325.0    
RIV   no.    2 value from time series:   101.00     for time:  324.0     to  325.0    
RIV   no.    3 value from time series:   111.50     for time:  324.0     to  325.0    
RIV   no.    4 value from time series:   111.50     for time:  324.0     to  325.0    
RIV   no.    5 value from time series:   115.10     for time:  324.0     to  325.0    
RIV   no.    6 value from time series:   115.10     for time:  324.0     to  325.0    
RIV   no.    7 value from time series:   104.00     for time:  324.0     to  325.0    
RIV   no.    8 value from time series:   104.00     for time:  324.0     to  325.0    
RIV   no.    9 value from time series:   113.50     for time:  324.0     to  325.0    
RIV   no.   10 value from time series:   113.50     for time:  324.0     to  325.0    

 NO OUTPUT CONTROL FOR STRESS PERIOD    7   TIME STEP  173
RIV   no.    1 value from time series:   101.00     for time:  325.0     to  326.0    
RIV   no.    2 value from time series:   101.00     for time:  325.0     to  326.0    
RIV   no.    3 value from time series:   111.50     for time:  325.0     to  326.0    
RIV   no.    4 value from time series:   111.50     for time:  325.0     to  326.0    
RIV   no.    5 value from time series:   115.10     for time:  325.0     to  326.0    
RIV   no.    6 value from time series:   115.10     for time:  325.0     to  326.0    
RIV   no.    7 value from time series:   104.00     for time:  325.0     to  326.0    
RIV   no.    8 value from time series:   104.00     for time:  325.0     to  326.0    
RIV   no.    9 value from time series:   113.50     for time:  325.0     to  326.0    
RIV   no.   10 value from time series:   113.50     for time:  325.0     to  326.0    
RIV   no.    1 value from time series:   101.00     for time:  325.0     to  326.0    
RIV   no.    2 value from time series:   101.00     for time:  325.0     to  326.0    
RIV   no.    3 value from time series:   111.50     for time:  325.0     to  326.0    
RIV   no.    4 value from time series:   111.50     for time:  325.0     to  326.0    
RIV   no.    5 value from time series:   115.10     for time:  325.0     to  326.0    
RIV   no.    6 value from time series:   115.10     for time:  325.0     to  326.0    
RIV   no.    7 value from time series:   104.00     for time:  325.0     to  326.0    
RIV   no.    8 value from time series:   104.00     for time:  325.0     to  326.0    
RIV   no.    9 value from time series:   113.50     for time:  325.0     to  326.0    
RIV   no.   10 value from time series:   113.50     for time:  325.0     to  326.0    

 NO OUTPUT CONTROL FOR STRESS PERIOD    7   TIME STEP  174
RIV   no.    1 value from time series:   101.00     for time:  326.0     to  327.0    
RIV   no.    2 value from time series:   101.00     for time:  326.0     to  327.0    
RIV   no.    3 value from time series:   111.50     for time:  326.0     to  327.0    
RIV   no.    4 value from time series:   111.50     for time:  326.0     to  327.0    
RIV   no.    5 value from time series:   115.10     for time:  326.0     to  327.0    
RIV   no.    6 value from time series:   115.10     for time:  326.0     to  327.0    
RIV   no.    7 value from time series:   104.00     for time:  326.0     to  327.0    
RIV   no.    8 value from time series:   104.00     for time:  326.0     to  327.0    
RIV   no.    9 value from time series:   113.50     for time:  326.0     to  327.0    
RIV   no.   10 value from time series:   113.50     for time:  326.0     to  327.0    
RIV   no.    1 value from time series:   101.00     for time:  326.0     to  327.0    
RIV   no.    2 value from time series:   101.00     for time:  326.0     to  327.0    
RIV   no.    3 value from time series:   111.50     for time:  326.0     to  327.0    
RIV   no.    4 value from time series:   111.50     for time:  326.0     to  327.0    
RIV   no.    5 value from time series:   115.10     for time:  326.0     to  327.0    
RIV   no.    6 value from time series:   115.10     for time:  326.0     to  327.0    
RIV   no.    7 value from time series:   104.00     for time:  326.0     to  327.0    
RIV   no.    8 value from time series:   104.00     for time:  326.0     to  327.0    
RIV   no.    9 value from time series:   113.50     for time:  326.0     to  327.0    
RIV   no.   10 value from time series:   113.50     for time:  326.0     to  327.0    

 NO OUTPUT CONTROL FOR STRESS PERIOD    7   TIME STEP  175
RIV   no.    1 value from time series:   101.00     for time:  327.0     to  328.0    
RIV   no.    2 value from time series:   101.00     for time:  327.0     to  328.0    
RIV   no.    3 value from time series:   111.50     for time:  327.0     to  328.0    
RIV   no.    4 value from time series:   111.50     for time:  327.0     to  328.0    
RIV   no.    5 value from time series:   115.10     for time:  327.0     to  328.0    
RIV   no.    6 value from time series:   115.10     for time:  327.0     to  328.0    
RIV   no.    7 value from time series:   104.00     for time:  327.0     to  328.0    
RIV   no.    8 value from time series:   104.00     for time:  327.0     to  328.0    
RIV   no.    9 value from time series:   113.50     for time:  327.0     to  328.0    
RIV   no.   10 value from time series:   113.50     for time:  327.0     to  328.0    
RIV   no.    1 value from time series:   101.00     for time:  327.0     to  328.0    
RIV   no.    2 value from time series:   101.00     for time:  327.0     to  328.0    
RIV   no.    3 value from time series:   111.50     for time:  327.0     to  328.0    
RIV   no.    4 value from time series:   111.50     for time:  327.0     to  328.0    
RIV   no.    5 value from time series:   115.10     for time:  327.0     to  328.0    
RIV   no.    6 value from time series:   115.10     for time:  327.0     to  328.0    
RIV   no.    7 value from time series:   104.00     for time:  327.0     to  328.0    
RIV   no.    8 value from time series:   104.00     for time:  327.0     to  328.0    
RIV   no.    9 value from time series:   113.50     for time:  327.0     to  328.0    
RIV   no.   10 value from time series:   113.50     for time:  327.0     to  328.0    

 NO OUTPUT CONTROL FOR STRESS PERIOD    7   TIME STEP  176
RIV   no.    1 value from time series:   101.00     for time:  328.0     to  329.0    
RIV   no.    2 value from time series:   101.00     for time:  328.0     to  329.0    
RIV   no.    3 value from time series:   111.50     for time:  328.0     to  329.0    
RIV   no.    4 value from time series:   111.50     for time:  328.0     to  329.0    
RIV   no.    5 value from time series:   115.10     for time:  328.0     to  329.0    
RIV   no.    6 value from time series:   115.10     for time:  328.0     to  329.0    
RIV   no.    7 value from time series:   104.00     for time:  328.0     to  329.0    
RIV   no.    8 value from time series:   104.00     for time:  328.0     to  329.0    
RIV   no.    9 value from time series:   113.50     for time:  328.0     to  329.0    
RIV   no.   10 value from time series:   113.50     for time:  328.0     to  329.0    
RIV   no.    1 value from time series:   101.00     for time:  328.0     to  329.0    
RIV   no.    2 value from time series:   101.00     for time:  328.0     to  329.0    
RIV   no.    3 value from time series:   111.50     for time:  328.0     to  329.0    
RIV   no.    4 value from time series:   111.50     for time:  328.0     to  329.0    
RIV   no.    5 value from time series:   115.10     for time:  328.0     to  329.0    
RIV   no.    6 value from time series:   115.10     for time:  328.0     to  329.0    
RIV   no.    7 value from time series:   104.00     for time:  328.0     to  329.0    
RIV   no.    8 value from time series:   104.00     for time:  328.0     to  329.0    
RIV   no.    9 value from time series:   113.50     for time:  328.0     to  329.0    
RIV   no.   10 value from time series:   113.50     for time:  328.0     to  329.0    

 NO OUTPUT CONTROL FOR STRESS PERIOD    7   TIME STEP  177
RIV   no.    1 value from time series:   101.00     for time:  329.0     to  330.0    
RIV   no.    2 value from time series:   101.00     for time:  329.0     to  330.0    
RIV   no.    3 value from time series:   111.50     for time:  329.0     to  330.0    
RIV   no.    4 value from time series:   111.50     for time:  329.0     to  330.0    
RIV   no.    5 value from time series:   115.10     for time:  329.0     to  330.0    
RIV   no.    6 value from time series:   115.10     for time:  329.0     to  330.0    
RIV   no.    7 value from time series:   104.00     for time:  329.0     to  330.0    
RIV   no.    8 value from time series:   104.00     for time:  329.0     to  330.0    
RIV   no.    9 value from time series:   113.50     for time:  329.0     to  330.0    
RIV   no.   10 value from time series:   113.50     for time:  329.0     to  330.0    
RIV   no.    1 value from time series:   101.00     for time:  329.0     to  330.0    
RIV   no.    2 value from time series:   101.00     for time:  329.0     to  330.0    
RIV   no.    3 value from time series:   111.50     for time:  329.0     to  330.0    
RIV   no.    4 value from time series:   111.50     for time:  329.0     to  330.0    
RIV   no.    5 value from time series:   115.10     for time:  329.0     to  330.0    
RIV   no.    6 value from time series:   115.10     for time:  329.0     to  330.0    
RIV   no.    7 value from time series:   104.00     for time:  329.0     to  330.0    
RIV   no.    8 value from time series:   104.00     for time:  329.0     to  330.0    
RIV   no.    9 value from time series:   113.50     for time:  329.0     to  330.0    
RIV   no.   10 value from time series:   113.50     for time:  329.0     to  330.0    

 NO OUTPUT CONTROL FOR STRESS PERIOD    7   TIME STEP  178
RIV   no.    1 value from time series:   101.00     for time:  330.0     to  331.0    
RIV   no.    2 value from time series:   101.00     for time:  330.0     to  331.0    
RIV   no.    3 value from time series:   111.50     for time:  330.0     to  331.0    
RIV   no.    4 value from time series:   111.50     for time:  330.0     to  331.0    
RIV   no.    5 value from time series:   115.10     for time:  330.0     to  331.0    
RIV   no.    6 value from time series:   115.10     for time:  330.0     to  331.0    
RIV   no.    7 value from time series:   104.00     for time:  330.0     to  331.0    
RIV   no.    8 value from time series:   104.00     for time:  330.0     to  331.0    
RIV   no.    9 value from time series:   113.50     for time:  330.0     to  331.0    
RIV   no.   10 value from time series:   113.50     for time:  330.0     to  331.0    

 RchArraySeries           =  1.000000E-03 FOR LAYER   1

 EtsArraySeries           =  3.200000E-04 FOR LAYER   1
RIV   no.    1 value from time series:   101.00     for time:  330.0     to  331.0    
RIV   no.    2 value from time series:   101.00     for time:  330.0     to  331.0    
RIV   no.    3 value from time series:   111.50     for time:  330.0     to  331.0    
RIV   no.    4 value from time series:   111.50     for time:  330.0     to  331.0    
RIV   no.    5 value from time series:   115.10     for time:  330.0     to  331.0    
RIV   no.    6 value from time series:   115.10     for time:  330.0     to  331.0    
RIV   no.    7 value from time series:   104.00     for time:  330.0     to  331.0    
RIV   no.    8 value from time series:   104.00     for time:  330.0     to  331.0    
RIV   no.    9 value from time series:   113.50     for time:  330.0     to  331.0    
RIV   no.   10 value from time series:   113.50     for time:  330.0     to  331.0    

 NO OUTPUT CONTROL FOR STRESS PERIOD    7   TIME STEP  179
RIV   no.    1 value from time series:   101.00     for time:  331.0     to  332.0    
RIV   no.    2 value from time series:   101.00     for time:  331.0     to  332.0    
RIV   no.    3 value from time series:   111.50     for time:  331.0     to  332.0    
RIV   no.    4 value from time series:   111.50     for time:  331.0     to  332.0    
RIV   no.    5 value from time series:   115.10     for time:  331.0     to  332.0    
RIV   no.    6 value from time series:   115.10     for time:  331.0     to  332.0    
RIV   no.    7 value from time series:   104.00     for time:  331.0     to  332.0    
RIV   no.    8 value from time series:   104.00     for time:  331.0     to  332.0    
RIV   no.    9 value from time series:   113.50     for time:  331.0     to  332.0    
RIV   no.   10 value from time series:   113.50     for time:  331.0     to  332.0    
RIV   no.    1 value from time series:   101.00     for time:  331.0     to  332.0    
RIV   no.    2 value from time series:   101.00     for time:  331.0     to  332.0    
RIV   no.    3 value from time series:   111.50     for time:  331.0     to  332.0    
RIV   no.    4 value from time series:   111.50     for time:  331.0     to  332.0    
RIV   no.    5 value from time series:   115.10     for time:  331.0     to  332.0    
RIV   no.    6 value from time series:   115.10     for time:  331.0     to  332.0    
RIV   no.    7 value from time series:   104.00     for time:  331.0     to  332.0    
RIV   no.    8 value from time series:   104.00     for time:  331.0     to  332.0    
RIV   no.    9 value from time series:   113.50     for time:  331.0     to  332.0    
RIV   no.   10 value from time series:   113.50     for time:  331.0     to  332.0    

 NO OUTPUT CONTROL FOR STRESS PERIOD    7   TIME STEP  180
RIV   no.    1 value from time series:   101.00     for time:  332.0     to  333.0    
RIV   no.    2 value from time series:   101.00     for time:  332.0     to  333.0    
RIV   no.    3 value from time series:   111.50     for time:  332.0     to  333.0    
RIV   no.    4 value from time series:   111.50     for time:  332.0     to  333.0    
RIV   no.    5 value from time series:   115.10     for time:  332.0     to  333.0    
RIV   no.    6 value from time series:   115.10     for time:  332.0     to  333.0    
RIV   no.    7 value from time series:   104.00     for time:  332.0     to  333.0    
RIV   no.    8 value from time series:   104.00     for time:  332.0     to  333.0    
RIV   no.    9 value from time series:   113.50     for time:  332.0     to  333.0    
RIV   no.   10 value from time series:   113.50     for time:  332.0     to  333.0    
RIV   no.    1 value from time series:   101.00     for time:  332.0     to  333.0    
RIV   no.    2 value from time series:   101.00     for time:  332.0     to  333.0    
RIV   no.    3 value from time series:   111.50     for time:  332.0     to  333.0    
RIV   no.    4 value from time series:   111.50     for time:  332.0     to  333.0    
RIV   no.    5 value from time series:   115.10     for time:  332.0     to  333.0    
RIV   no.    6 value from time series:   115.10     for time:  332.0     to  333.0    
RIV   no.    7 value from time series:   104.00     for time:  332.0     to  333.0    
RIV   no.    8 value from time series:   104.00     for time:  332.0     to  333.0    
RIV   no.    9 value from time series:   113.50     for time:  332.0     to  333.0    
RIV   no.   10 value from time series:   113.50     for time:  332.0     to  333.0    

 NO OUTPUT CONTROL FOR STRESS PERIOD    7   TIME STEP  181
RIV   no.    1 value from time series:   101.00     for time:  333.0     to  334.0    
RIV   no.    2 value from time series:   101.00     for time:  333.0     to  334.0    
RIV   no.    3 value from time series:   111.50     for time:  333.0     to  334.0    
RIV   no.    4 value from time series:   111.50     for time:  333.0     to  334.0    
RIV   no.    5 value from time series:   115.10     for time:  333.0     to  334.0    
RIV   no.    6 value from time series:   115.10     for time:  333.0     to  334.0    
RIV   no.    7 value from time series:   104.00     for time:  333.0     to  334.0    
RIV   no.    8 value from time series:   104.00     for time:  333.0     to  334.0    
RIV   no.    9 value from time series:   113.50     for time:  333.0     to  334.0    
RIV   no.   10 value from time series:   113.50     for time:  333.0     to  334.0    
RIV   no.    1 value from time series:   101.00     for time:  333.0     to  334.0    
RIV   no.    2 value from time series:   101.00     for time:  333.0     to  334.0    
RIV   no.    3 value from time series:   111.50     for time:  333.0     to  334.0    
RIV   no.    4 value from time series:   111.50     for time:  333.0     to  334.0    
RIV   no.    5 value from time series:   115.10     for time:  333.0     to  334.0    
RIV   no.    6 value from time series:   115.10     for time:  333.0     to  334.0    
RIV   no.    7 value from time series:   104.00     for time:  333.0     to  334.0    
RIV   no.    8 value from time series:   104.00     for time:  333.0     to  334.0    
RIV   no.    9 value from time series:   113.50     for time:  333.0     to  334.0    
RIV   no.   10 value from time series:   113.50     for time:  333.0     to  334.0    

 NO OUTPUT CONTROL FOR STRESS PERIOD    7   TIME STEP  182
RIV   no.    1 value from time series:   101.00     for time:  334.0     to  335.0    
RIV   no.    2 value from time series:   101.00     for time:  334.0     to  335.0    
RIV   no.    3 value from time series:   111.50     for time:  334.0     to  335.0    
RIV   no.    4 value from time series:   111.50     for time:  334.0     to  335.0    
RIV   no.    5 value from time series:   115.10     for time:  334.0     to  335.0    
RIV   no.    6 value from time series:   115.10     for time:  334.0     to  335.0    
RIV   no.    7 value from time series:   104.00     for time:  334.0     to  335.0    
RIV   no.    8 value from time series:   104.00     for time:  334.0     to  335.0    
RIV   no.    9 value from time series:   113.50     for time:  334.0     to  335.0    
RIV   no.   10 value from time series:   113.50     for time:  334.0     to  335.0    
RIV   no.    1 value from time series:   101.00     for time:  334.0     to  335.0    
RIV   no.    2 value from time series:   101.00     for time:  334.0     to  335.0    
RIV   no.    3 value from time series:   111.50     for time:  334.0     to  335.0    
RIV   no.    4 value from time series:   111.50     for time:  334.0     to  335.0    
RIV   no.    5 value from time series:   115.10     for time:  334.0     to  335.0    
RIV   no.    6 value from time series:   115.10     for time:  334.0     to  335.0    
RIV   no.    7 value from time series:   104.00     for time:  334.0     to  335.0    
RIV   no.    8 value from time series:   104.00     for time:  334.0     to  335.0    
RIV   no.    9 value from time series:   113.50     for time:  334.0     to  335.0    
RIV   no.   10 value from time series:   113.50     for time:  334.0     to  335.0    

 OUTPUT CONTROL FOR STRESS PERIOD    7   TIME STEP  183
    PRINT BUDGET
    PRINT HEAD
    PRINT HEAD FOR ALL LAYERS
    SAVE BUDGET
    SAVE HEAD
    SAVE HEAD FOR ALL LAYERS
    SAVE IBOUND
    SAVE IBOUND FOR ALL LAYERS
 UBDSV1 SAVING          STORAGE ON UNIT   1016 AT TIME STEP    183, STRESS PERIOD      7
 UBDSV1 SAVING FLOW RIGHT FACE  ON UNIT   1016 AT TIME STEP    183, STRESS PERIOD      7
 UBDSV1 SAVING FLOW FRONT FACE  ON UNIT   1016 AT TIME STEP    183, STRESS PERIOD      7
 UBDSV1 SAVING FLOW LOWER FACE  ON UNIT   1016 AT TIME STEP    183, STRESS PERIOD      7
 UBDSV4 SAVING WELLS NEAR RIVER ON UNIT   1016 AT TIME STEP    183, STRESS PERIOD      7
 UBDSV4 SAVING RIVER            ON UNIT   1016 AT TIME STEP    183, STRESS PERIOD      7

 RIVER              PERIOD  7   STEP183
 BOUNDARY      1   LAYER   1   ROW     1   COL    15   RATE    -5057.04    
 BOUNDARY      2   LAYER   1   ROW     2   COL    15   RATE    -6185.07      RIV2
 BOUNDARY      3   LAYER   1   ROW     3   COL    15   RATE    -2445.97      RIV3
 BOUNDARY      4   LAYER   1   ROW     4   COL    15   RATE    -3910.75    
 BOUNDARY      5   LAYER   1   ROW     5   COL    15   RATE    -2544.15    
 BOUNDARY      6   LAYER   1   ROW     6   COL    15   RATE    -1890.51    
 BOUNDARY      7   LAYER   1   ROW     7   COL    15   RATE    -6384.38      RIVX
 BOUNDARY      8   LAYER   1   ROW     8   COL    15   RATE    -6238.80      RIVX
 BOUNDARY      9   LAYER   1   ROW     9   COL    15   RATE    -2447.67      RIVX
 BOUNDARY     10   LAYER   1   ROW    10   COL    15   RATE    -3358.02    

 GHB LAKES          PERIOD  7   STEP183
 BOUNDARY      1   LAYER   1   ROW     3   COL     1   RATE    -15561.8    
 BOUNDARY      2   LAYER   1   ROW     7   COL     1   RATE    -2679.23      GHB2_UPPER
 BOUNDARY      3   LAYER   1   ROW     7   COL     1   RATE    -13535.5      GHB2_LOWER
 UBDSV4 SAVING RECHARGE         ON UNIT   1016 AT TIME STEP    183, STRESS PERIOD      7

 RECHARGE           PERIOD  7   STEP183
 BOUNDARY      1   LAYER   1   ROW     1   COL     1   RATE     359.375    
 BOUNDARY      2   LAYER   1   ROW     1   COL     2   RATE     359.375    
 BOUNDARY      3   LAYER   1   ROW     1   COL     3   RATE     359.375    
 BOUNDARY      4   LAYER   1   ROW     1   COL     4   RATE     359.375    
 BOUNDARY      5   LAYER   1   ROW     1   COL     5   RATE     359.375    
 BOUNDARY      6   LAYER   1   ROW     1   COL     6   RATE     359.375    
 BOUNDARY      7   LAYER   1   ROW     1   COL     7   RATE     359.375    
 BOUNDARY      8   LAYER   1   ROW     1   COL     8   RATE     359.375    
 BOUNDARY      9   LAYER   1   ROW     1   COL     9   RATE     359.375    
 BOUNDARY     10   LAYER   1   ROW     1   COL    10   RATE     359.375    
 BOUNDARY     11   LAYER   1   ROW     1   COL    11   RATE     359.375    
 BOUNDARY     12   LAYER   1   ROW     1   COL    12   RATE     359.375    
 BOUNDARY     13   LAYER   1   ROW     1   COL    13   RATE     359.375    
 BOUNDARY     14   LAYER   1   ROW     1   COL    14   RATE     359.375    
 BOUNDARY     15   LAYER   1   ROW     1   COL    15   RATE     359.375    
 BOUNDARY     16   LAYER   1   ROW     2   COL     1   RATE     359.375    
 BOUNDARY     17   LAYER   1   ROW     2   COL     2   RATE     359.375    
 BOUNDARY     18   LAYER   1   ROW     2   COL     3   RATE     359.375    
 BOUNDARY     19   LAYER   1   ROW     2   COL     4   RATE     359.375    
 BOUNDARY     20   LAYER   1   ROW     2   COL     5   RATE     359.375    
 BOUNDARY     21   LAYER   1   ROW     2   COL     6   RATE     359.375    
 BOUNDARY     22   LAYER   1   ROW     2   COL     7   RATE     359.375    
 BOUNDARY     23   LAYER   1   ROW     2   COL     8   RATE     359.375    
 BOUNDARY     24   LAYER   1   ROW     2   COL     9   RATE     359.375    
 BOUNDARY     25   LAYER   1   ROW     2   COL    10   RATE     359.375    
 BOUNDARY     26   LAYER   1   ROW     2   COL    11   RATE     359.375    
 BOUNDARY     27   LAYER   1   ROW     2   COL    12   RATE     359.375    
 BOUNDARY     28   LAYER   1   ROW     2   COL    13   RATE     359.375    
 BOUNDARY     29   LAYER   1   ROW     2   COL    14   RATE     359.375    
 BOUNDARY     30   LAYER   1   ROW     2   COL    15   RATE     359.375    
 BOUNDARY     31   LAYER   1   ROW     3   COL     1   RATE     359.375    
 BOUNDARY     32   LAYER   1   ROW     3   COL     2   RATE     359.375    
 BOUNDARY     33   LAYER   1   ROW     3   COL     3   RATE     359.375    
 BOUNDARY     34   LAYER   1   ROW     3   COL     4   RATE     359.375    
 BOUNDARY     35   LAYER   1   ROW     3   COL     5   RATE     359.375    
 BOUNDARY     36   LAYER   1   ROW     3   COL     6   RATE     359.375    
 BOUNDARY     37   LAYER   1   ROW     3   COL     7   RATE     359.375    
 BOUNDARY     38   LAYER   1   ROW     3   COL     8   RATE     359.375    
 BOUNDARY     39   LAYER   1   ROW     3   COL     9   RATE     359.375    
 BOUNDARY     40   LAYER   1   ROW     3   COL    10   RATE     359.375    
 BOUNDARY     41   LAYER   1   ROW     3   COL    11   RATE     359.375    
 BOUNDARY     42   LAYER   1   ROW     3   COL    12   RATE     359.375    
 BOUNDARY     43   LAYER   1   ROW     3   COL    13   RATE     359.375    
 BOUNDARY     44   LAYER   1   ROW     3   COL    14   RATE     359.375    
 BOUNDARY     45   LAYER   1   ROW     3   COL    15   RATE     359.375    
 BOUNDARY     46   LAYER   1   ROW     4   COL     1   RATE     359.375    
 BOUNDARY     47   LAYER   1   ROW     4   COL     2   RATE     359.375    
 BOUNDARY     48   LAYER   1   ROW     4   COL     3   RATE     359.375    
 BOUNDARY     49   LAYER   1   ROW     4   COL     4   RATE     359.375    
 BOUNDARY     50   LAYER   1   ROW     4   COL     5   RATE     359.375    
 BOUNDARY     51   LAYER   1   ROW     4   COL     6   RATE     359.375    
 BOUNDARY     52   LAYER   1   ROW     4   COL     7   RATE     359.375    
 BOUNDARY     53   LAYER   1   ROW     4   COL     8   RATE     359.375    
 BOUNDARY     54   LAYER   1   ROW     4   COL     9   RATE     359.375    
 BOUNDARY     55   LAYER   1   ROW     4   COL    10   RATE     359.375    
 BOUNDARY     56   LAYER   1   ROW     4   COL    11   RATE     359.375    
 BOUNDARY     57   LAYER   1   ROW     4   COL    12   RATE     359.375    
 BOUNDARY     58   LAYER   1   ROW     4   COL    13   RATE     359.375    
 BOUNDARY     59   LAYER   1   ROW     4   COL    14   RATE     359.375    
 BOUNDARY     60   LAYER   1   ROW     4   COL    15   RATE     359.375    
 BOUNDARY     61   LAYER   1   ROW     5   COL     1   RATE     359.375    
 BOUNDARY     62   LAYER   1   ROW     5   COL     2   RATE     359.375    
 BOUNDARY     63   LAYER   1   ROW     5   COL     3   RATE     359.375    
 BOUNDARY     64   LAYER   1   ROW     5   COL     4   RATE     359.375    
 BOUNDARY     65   LAYER   1   ROW     5   COL     5   RATE     359.375    
 BOUNDARY     66   LAYER   1   ROW     5   COL     6   RATE     359.375    
 BOUNDARY     67   LAYER   1   ROW     5   COL     7   RATE     359.375    
 BOUNDARY     68   LAYER   1   ROW     5   COL     8   RATE     359.375    
 BOUNDARY     69   LAYER   1   ROW     5   COL     9   RATE     359.375    
 BOUNDARY     70   LAYER   1   ROW     5   COL    10   RATE     359.375    
 BOUNDARY     71   LAYER   1   ROW     5   COL    11   RATE     359.375    
 BOUNDARY     72   LAYER   1   ROW     5   COL    12   RATE     359.375    
 BOUNDARY     73   LAYER   1   ROW     5   COL    13   RATE     359.375    
 BOUNDARY     74   LAYER   1   ROW     5   COL    14   RATE     359.375    
 BOUNDARY     75   LAYER   1   ROW     5   COL    15   RATE     359.375    
 BOUNDARY     76   LAYER   1   ROW     6   COL     1   RATE     359.375    
 BOUNDARY     77   LAYER   1   ROW     6   COL     2   RATE     359.375    
 BOUNDARY     78   LAYER   1   ROW     6   COL     3   RATE     359.375    
 BOUNDARY     79   LAYER   1   ROW     6   COL     4   RATE     359.375    
 BOUNDARY     80   LAYER   1   ROW     6   COL     5   RATE     359.375    
 BOUNDARY     81   LAYER   1   ROW     6   COL     6   RATE     359.375    
 BOUNDARY     82   LAYER   1   ROW     6   COL     7   RATE     359.375    
 BOUNDARY     83   LAYER   1   ROW     6   COL     8   RATE     359.375    
 BOUNDARY     84   LAYER   1   ROW     6   COL     9   RATE     359.375    
 BOUNDARY     85   LAYER   1   ROW     6   COL    10   RATE     359.375    
 BOUNDARY     86   LAYER   1   ROW     6   COL    11   RATE     359.375    
 BOUNDARY     87   LAYER   1   ROW     6   COL    12   RATE     359.375    
 BOUNDARY     88   LAYER   1   ROW     6   COL    13   RATE     359.375    
 BOUNDARY     89   LAYER   1   ROW     6   COL    14   RATE     359.375    
 BOUNDARY     90   LAYER   1   ROW     6   COL    15   RATE     359.375    
 BOUNDARY     91   LAYER   1   ROW     7   COL     1   RATE     359.375    
 BOUNDARY     92   LAYER   1   ROW     7   COL     2   RATE     359.375    
 BOUNDARY     93   LAYER   1   ROW     7   COL     3   RATE     359.375    
 BOUNDARY     94   LAYER   1   ROW     7   COL     4   RATE     359.375    
 BOUNDARY     95   LAYER   1   ROW     7   COL     5   RATE     359.375    
 BOUNDARY     96   LAYER   1   ROW     7   COL     6   RATE     359.375    
 BOUNDARY     97   LAYER   1   ROW     7   COL     7   RATE     359.375    
 BOUNDARY     98   LAYER   1   ROW     7   COL     8   RATE     359.375    
 BOUNDARY     99   LAYER   1   ROW     7   COL     9   RATE     359.375    
 BOUNDARY    100   LAYER   1   ROW     7   COL    10   RATE     359.375    
 BOUNDARY    101   LAYER   1   ROW     7   COL    11   RATE     359.375    
 BOUNDARY    102   LAYER   1   ROW     7   COL    12   RATE     359.375    
 BOUNDARY    103   LAYER   1   ROW     7   COL    13   RATE     359.375    
 BOUNDARY    104   LAYER   1   ROW     7   COL    14   RATE     359.375    
 BOUNDARY    105   LAYER   1   ROW     7   COL    15   RATE     359.375    
 BOUNDARY    106   LAYER   1   ROW     8   COL     1   RATE     359.375    
 BOUNDARY    107   LAYER   1   ROW     8   COL     2   RATE     359.375    
 BOUNDARY    108   LAYER   1   ROW     8   COL     3   RATE     359.375    
 BOUNDARY    109   LAYER   1   ROW     8   COL     4   RATE     359.375    
 BOUNDARY    110   LAYER   1   ROW     8   COL     5   RATE     359.375    
 BOUNDARY    111   LAYER   1   ROW     8   COL     6   RATE     359.375    
 BOUNDARY    112   LAYER   1   ROW     8   COL     7   RATE     359.375    
 BOUNDARY    113   LAYER   1   ROW     8   COL     8   RATE     359.375    
 BOUNDARY    114   LAYER   1   ROW     8   COL     9   RATE     359.375    
 BOUNDARY    115   LAYER   1   ROW     8   COL    10   RATE     359.375    
 BOUNDARY    116   LAYER   1   ROW     8   COL    11   RATE     359.375    
 BOUNDARY    117   LAYER   1   ROW     8   COL    12   RATE     359.375    
 BOUNDARY    118   LAYER   1   ROW     8   COL    13   RATE     359.375    
 BOUNDARY    119   LAYER   1   ROW     8   COL    14   RATE     359.375    
 BOUNDARY    120   LAYER   1   ROW     8   COL    15   RATE     359.375    
 BOUNDARY    121   LAYER   1   ROW     9   COL     1   RATE     359.375    
 BOUNDARY    122   LAYER   1   ROW     9   COL     2   RATE     359.375    
 BOUNDARY    123   LAYER   1   ROW     9   COL     3   RATE     359.375    
 BOUNDARY    124   LAYER   1   ROW     9   COL     4   RATE     359.375    
 BOUNDARY    125   LAYER   1   ROW     9   COL     5   RATE     359.375    
 BOUNDARY    126   LAYER   1   ROW     9   COL     6   RATE     359.375    
 BOUNDARY    127   LAYER   1   ROW     9   COL     7   RATE     359.375    
 BOUNDARY    128   LAYER   1   ROW     9   COL     8   RATE     359.375    
 BOUNDARY    129   LAYER   1   ROW     9   COL     9   RATE     359.375    
 BOUNDARY    130   LAYER   1   ROW     9   COL    10   RATE     359.375    
 BOUNDARY    131   LAYER   1   ROW     9   COL    11   RATE     359.375    
 BOUNDARY    132   LAYER   1   ROW     9   COL    12   RATE     359.375    
 BOUNDARY    133   LAYER   1   ROW     9   COL    13   RATE     359.375    
 BOUNDARY    134   LAYER   1   ROW     9   COL    14   RATE     359.375    
 BOUNDARY    135   LAYER   1   ROW     9   COL    15   RATE     359.375    
 BOUNDARY    136   LAYER   1   ROW    10   COL     1   RATE     359.375    
 BOUNDARY    137   LAYER   1   ROW    10   COL     2   RATE     359.375    
 BOUNDARY    138   LAYER   1   ROW    10   COL     3   RATE     359.375    
 BOUNDARY    139   LAYER   1   ROW    10   COL     4   RATE     359.375    
 BOUNDARY    140   LAYER   1   ROW    10   COL     5   RATE     359.375    
 BOUNDARY    141   LAYER   1   ROW    10   COL     6   RATE     359.375    
 BOUNDARY    142   LAYER   1   ROW    10   COL     7   RATE     359.375    
 BOUNDARY    143   LAYER   1   ROW    10   COL     8   RATE     359.375    
 BOUNDARY    144   LAYER   1   ROW    10   COL     9   RATE     359.375    
 BOUNDARY    145   LAYER   1   ROW    10   COL    10   RATE     359.375    
 BOUNDARY    146   LAYER   1   ROW    10   COL    11   RATE     359.375    
 BOUNDARY    147   LAYER   1   ROW    10   COL    12   RATE     359.375    
 BOUNDARY    148   LAYER   1   ROW    10   COL    13   RATE     359.375    
 BOUNDARY    149   LAYER   1   ROW    10   COL    14   RATE     359.375    
 BOUNDARY    150   LAYER   1   ROW    10   COL    15   RATE     359.375    
 UBDSV4 SAVING ET SEGS          ON UNIT   1016 AT TIME STEP    183, STRESS PERIOD      7

 ET SEGS            PERIOD  7   STEP183
 BOUNDARY      1   LAYER   1   ROW     1   COL     1   RATE    -5.25010    
 BOUNDARY      2   LAYER   1   ROW     1   COL     2   RATE    -17.5940    
 BOUNDARY      3   LAYER   1   ROW     1   COL     3   RATE    -82.1875    
 BOUNDARY      4   LAYER   1   ROW     1   COL     4   RATE    -82.1875    
 BOUNDARY      5   LAYER   1   ROW     1   COL     5   RATE    -82.1875    
 BOUNDARY      6   LAYER   1   ROW     1   COL     6   RATE    -82.1875    
 BOUNDARY      7   LAYER   1   ROW     1   COL     7   RATE    -82.1875    
 BOUNDARY      8   LAYER   1   ROW     1   COL     8   RATE    -82.1875    
 BOUNDARY      9   LAYER   1   ROW     1   COL     9   RATE    -82.1875    
 BOUNDARY     10   LAYER   1   ROW     1   COL    10   RATE    -82.1875    
 BOUNDARY     11   LAYER   1   ROW     1   COL    11   RATE    -82.1875    
 BOUNDARY     12   LAYER   1   ROW     1   COL    12   RATE    -33.9335    
 BOUNDARY     13   LAYER   1   ROW     1   COL    13   RATE    -2.67041    
 BOUNDARY     14   LAYER   1   ROW     1   COL    14   RATE     0.00000    
 BOUNDARY     15   LAYER   1   ROW     1   COL    15   RATE     0.00000    
 BOUNDARY     16   LAYER   1   ROW     2   COL     1   RATE     0.00000    
 BOUNDARY     17   LAYER   1   ROW     2   COL     2   RATE    -7.11203    
 BOUNDARY     18   LAYER   1   ROW     2   COL     3   RATE    -81.4641    
 BOUNDARY     19   LAYER   1   ROW     2   COL     4   RATE    -82.1875    
 BOUNDARY     20   LAYER   1   ROW     2   COL     5   RATE    -82.1875    
 BOUNDARY     21   LAYER   1   ROW     2   COL     6   RATE    -82.1875    
 BOUNDARY     22   LAYER   1   ROW     2   COL     7   RATE    -82.1875    
 BOUNDARY     23   LAYER   1   ROW     2   COL     8   RATE    -82.1875    
 BOUNDARY     24   LAYER   1   ROW     2   COL     9   RATE    -82.1875    
 BOUNDARY     25   LAYER   1   ROW     2   COL    10   RATE    -82.1875    
 BOUNDARY     26   LAYER   1   ROW     2   COL    11   RATE    -82.1875    
 BOUNDARY     27   LAYER   1   ROW     2   COL    12   RATE    -41.0481    
 BOUNDARY     28   LAYER   1   ROW     2   COL    13   RATE    -3.45981    
 BOUNDARY     29   LAYER   1   ROW     2   COL    14   RATE     0.00000    
 BOUNDARY     30   LAYER   1   ROW     2   COL    15   RATE     0.00000    
 BOUNDARY     31   LAYER   1   ROW     3   COL     1   RATE     0.00000    
 BOUNDARY     32   LAYER   1   ROW     3   COL     2   RATE    -1.13437    
 BOUNDARY     33   LAYER   1   ROW     3   COL     3   RATE    -54.4818    
 BOUNDARY     34   LAYER   1   ROW     3   COL     4   RATE    -82.1875    
 BOUNDARY     35   LAYER   1   ROW     3   COL     5   RATE    -82.1875    
 BOUNDARY     36   LAYER   1   ROW     3   COL     6   RATE    -82.1875    
 BOUNDARY     37   LAYER   1   ROW     3   COL     7   RATE    -82.1875    
 BOUNDARY     38   LAYER   1   ROW     3   COL     8   RATE    -82.1875    
 BOUNDARY     39   LAYER   1   ROW     3   COL     9   RATE    -82.1875    
 BOUNDARY     40   LAYER   1   ROW     3   COL    10   RATE    -82.1875    
 BOUNDARY     41   LAYER   1   ROW     3   COL    11   RATE    -82.1875    
 BOUNDARY     42   LAYER   1   ROW     3   COL    12   RATE    -53.0328    
 BOUNDARY     43   LAYER   1   ROW     3   COL    13   RATE    -4.89534    
 BOUNDARY     44   LAYER   1   ROW     3   COL    14   RATE     0.00000    
 BOUNDARY     45   LAYER   1   ROW     3   COL    15   RATE     0.00000    
 BOUNDARY     46   LAYER   1   ROW     4   COL     1   RATE     0.00000    
 BOUNDARY     47   LAYER   1   ROW     4   COL     2   RATE    -5.79778    
 BOUNDARY     48   LAYER   1   ROW     4   COL     3   RATE    -71.8884    
 BOUNDARY     49   LAYER   1   ROW     4   COL     4   RATE    -82.1875    
 BOUNDARY     50   LAYER   1   ROW     4   COL     5   RATE    -82.1875    
 BOUNDARY     51   LAYER   1   ROW     4   COL     6   RATE    -82.1875    
 BOUNDARY     52   LAYER   1   ROW     4   COL     7   RATE    -82.1875    
 BOUNDARY     53   LAYER   1   ROW     4   COL     8   RATE    -82.1875    
 BOUNDARY     54   LAYER   1   ROW     4   COL     9   RATE    -82.1875    
 BOUNDARY     55   LAYER   1   ROW     4   COL    10   RATE    -82.1875    
 BOUNDARY     56   LAYER   1   ROW     4   COL    11   RATE    -82.1875    
 BOUNDARY     57   LAYER   1   ROW     4   COL    12   RATE    -64.3690    
 BOUNDARY     58   LAYER   1   ROW     4   COL    13   RATE    -6.04873    
 BOUNDARY     59   LAYER   1   ROW     4   COL    14   RATE     0.00000    
 BOUNDARY     60   LAYER   1   ROW     4   COL    15   RATE     0.00000    
 BOUNDARY     61   LAYER   1   ROW     5   COL     1   RATE   -0.361978    
 BOUNDARY     62   LAYER   1   ROW     5   COL     2   RATE    -8.65894    
 BOUNDARY     63   LAYER   1   ROW     5   COL     3   RATE    -82.1875    
 BOUNDARY     64   LAYER   1   ROW     5   COL     4   RATE    -82.1875    
 BOUNDARY     65   LAYER   1   ROW     5   COL     5   RATE    -82.1875    
 BOUNDARY     66   LAYER   1   ROW     5   COL     6   RATE    -82.1875    
 BOUNDARY     67   LAYER   1   ROW     5   COL     7   RATE    -82.1875    
 BOUNDARY     68   LAYER   1   ROW     5   COL     8   RATE    -82.1875    
 BOUNDARY     69   LAYER   1   ROW     5   COL     9   RATE    -82.1875    
 BOUNDARY     70   LAYER   1   ROW     5   COL    10   RATE    -82.1875    
 BOUNDARY     71   LAYER   1   ROW     5   COL    11   RATE    -82.1875    
 BOUNDARY     72   LAYER   1   ROW     5   COL    12   RATE    -72.1902    
 BOUNDARY     73   LAYER   1   ROW     5   COL    13   RATE    -6.74493    
 BOUNDARY     74   LAYER   1   ROW     5   COL    14   RATE     0.00000    
 BOUNDARY     75   LAYER   1   ROW     5   COL    15   RATE     0.00000    
 BOUNDARY     76   LAYER   1   ROW     6   COL     1   RATE     0.00000    
 BOUNDARY     77   LAYER   1   ROW     6   COL     2   RATE    -7.03259    
 BOUNDARY     78   LAYER   1   ROW     6   COL     3   RATE    -82.1875    
 BOUNDARY     79   LAYER   1   ROW     6   COL     4   RATE    -82.1875    
 BOUNDARY     80   LAYER   1   ROW     6   COL     5   RATE    -82.1875    
 BOUNDARY     81   LAYER   1   ROW     6   COL     6   RATE    -82.1875    
 BOUNDARY     82   LAYER   1   ROW     6   COL     7   RATE    -82.1875    
 BOUNDARY     83   LAYER   1   ROW     6   COL     8   RATE    -82.1875    
 BOUNDARY     84   LAYER   1   ROW     6   COL     9   RATE    -82.1875    
 BOUNDARY     85   LAYER   1   ROW     6   COL    10   RATE    -82.1875    
 BOUNDARY     86   LAYER   1   ROW     6   COL    11   RATE    -82.1875    
 BOUNDARY     87   LAYER   1   ROW     6   COL    12   RATE    -74.9767    
 BOUNDARY     88   LAYER   1   ROW     6   COL    13   RATE    -6.70366    
 BOUNDARY     89   LAYER   1   ROW     6   COL    14   RATE     0.00000    
 BOUNDARY     90   LAYER   1   ROW     6   COL    15   RATE     0.00000    
 BOUNDARY     91   LAYER   1   ROW     7   COL     1   RATE     0.00000    
 BOUNDARY     92   LAYER   1   ROW     7   COL     2   RATE    -3.88874    
 BOUNDARY     93   LAYER   1   ROW     7   COL     3   RATE    -82.1875    
 BOUNDARY     94   LAYER   1   ROW     7   COL     4   RATE    -82.1875    
 BOUNDARY     95   LAYER   1   ROW     7   COL     5   RATE    -82.1875    
 BOUNDARY     96   LAYER   1   ROW     7   COL     6   RATE    -82.1875    
 BOUNDARY     97   LAYER   1   ROW     7   COL     7   RATE    -82.1875    
 BOUNDARY     98   LAYER   1   ROW     7   COL     8   RATE    -82.1875    
 BOUNDARY     99   LAYER   1   ROW     7   COL     9   RATE    -82.1875    
 BOUNDARY    100   LAYER   1   ROW     7   COL    10   RATE    -82.1875    
 BOUNDARY    101   LAYER   1   ROW     7   COL    11   RATE    -82.1875    
 BOUNDARY    102   LAYER   1   ROW     7   COL    12   RATE    -74.7658    
 BOUNDARY    103   LAYER   1   ROW     7   COL    13   RATE    -6.14474    
 BOUNDARY    104   LAYER   1   ROW     7   COL    14   RATE     0.00000    
 BOUNDARY    105   LAYER   1   ROW     7   COL    15   RATE     0.00000    
 BOUNDARY    106   LAYER   1   ROW     8   COL     1   RATE    -1.56349    
 BOUNDARY    107   LAYER   1   ROW     8   COL     2   RATE    -20.7866    
 BOUNDARY    108   LAYER   1   ROW     8   COL     3   RATE    -82.1875    
 BOUNDARY    109   LAYER   1   ROW     8   COL     4   RATE    -82.1875    
 BOUNDARY    110   LAYER   1   ROW     8   COL     5   RATE    -82.1875    
 BOUNDARY    111   LAYER   1   ROW     8   COL     6   RATE    -82.1875    
 BOUNDARY    112   LAYER   1   ROW     8   COL     7   RATE    -82.1875    
 BOUNDARY    113   LAYER   1   ROW     8   COL     8   RATE    -82.1875    
 BOUNDARY    114   LAYER   1   ROW     8   COL     9   RATE    -82.1875    
 BOUNDARY    115   LAYER   1   ROW     8   COL    10   RATE    -82.1875    
 BOUNDARY    116   LAYER   1   ROW     8   COL    11   RATE    -82.1875    
 BOUNDARY    117   LAYER   1   ROW     8   COL    12   RATE    -77.0846    
 BOUNDARY    118   LAYER   1   ROW     8   COL    13   RATE    -6.20355    
 BOUNDARY    119   LAYER   1   ROW     8   COL    14   RATE     0.00000    
 BOUNDARY    120   LAYER   1   ROW     8   COL    15   RATE     0.00000    
 BOUNDARY    121   LAYER   1   ROW     9   COL     1   RATE    -37.8832    
 BOUNDARY    122   LAYER   1   ROW     9   COL     2   RATE    -82.1875    
 BOUNDARY    123   LAYER   1   ROW     9   COL     3   RATE    -82.1875    
 BOUNDARY    124   LAYER   1   ROW     9   COL     4   RATE    -82.1875    
 BOUNDARY    125   LAYER   1   ROW     9   COL     5   RATE    -82.1875    
 BOUNDARY    126   LAYER   1   ROW     9   COL     6   RATE    -82.1875    
 BOUNDARY    127   LAYER   1   ROW     9   COL     7   RATE    -82.1875    
 BOUNDARY    128   LAYER   1   ROW     9   COL     8   RATE    -82.1875    
 BOUNDARY    129   LAYER   1   ROW     9   COL     9   RATE    -82.1875    
 BOUNDARY    130   LAYER   1   ROW     9   COL    10   RATE    -82.1875    
 BOUNDARY    131   LAYER   1   ROW     9   COL    11   RATE    -82.1875    
 BOUNDARY    132   LAYER   1   ROW     9   COL    12   RATE    -82.1875    
 BOUNDARY    133   LAYER   1   ROW     9   COL    13   RATE    -6.93080    
 BOUNDARY    134   LAYER   1   ROW     9   COL    14   RATE     0.00000    
 BOUNDARY    135   LAYER   1   ROW     9   COL    15   RATE     0.00000    
 BOUNDARY    136   LAYER   1   ROW    10   COL     1   RATE    -82.1875    
 BOUNDARY    137   LAYER   1   ROW    10   COL     2   RATE    -82.1875    
 BOUNDARY    138   LAYER   1   ROW    10   COL     3   RATE    -82.1875    
 BOUNDARY    139   LAYER   1   ROW    10   COL     4   RATE    -82.1875    
 BOUNDARY    140   LAYER   1   ROW    10   COL     5   RATE    -82.1875    
 BOUNDARY    141   LAYER   1   ROW    10   COL     6   RATE    -82.1875    
 BOUNDARY    142   LAYER   1   ROW    10   COL     7   RATE    -82.1875    
 BOUNDARY    143   LAYER   1   ROW    10   COL     8   RATE    -82.1875    
 BOUNDARY    144   LAYER   1   ROW    10   COL     9   RATE    -82.1875    
 BOUNDARY    145   LAYER   1   ROW    10   COL    10   RATE    -82.1875    
 BOUNDARY    146   LAYER   1   ROW    10   COL    11   RATE    -82.1875    
 BOUNDARY    147   LAYER   1   ROW    10   COL    12   RATE    -82.1875    
 BOUNDARY    148   LAYER   1   ROW    10   COL    13   RATE    -7.39523    
 BOUNDARY    149   LAYER   1   ROW    10   COL    14   RATE     0.00000    
 BOUNDARY    150   LAYER   1   ROW    10   COL    15   RATE     0.00000    
1
  HEAD             IN LAYER   1 AT END OF TIME STEP 183 IN STRESS PERIOD    7
  ---------------------------------------------------------------------------

           1          2          3          4          5          6          7          8
 ........................................................................................
   1   133.19398  136.71106  140.83499  144.45505  147.18967  148.96316  149.77421  149.62373
   2   127.58898  134.32671  139.97485  144.17101  147.11672  148.97190  149.81655  149.68191
   3   110.35384  130.69011  139.03685  143.92397  147.09423  149.03781  149.90774  149.79755
   4   126.25696  133.52717  139.64197  144.13117  147.25230  149.19479  149.98030  149.91836
   5   130.22021  135.08034  140.26116  144.48334  147.53679  149.44163  150.05242  149.98745
   6   126.93468  134.27838  140.36745  144.81676  147.89389  149.73147  150.20951  150.07901
   7   111.90964  132.36577  140.57681  145.32237  148.33507  149.93733  150.38110  150.23668
   8   130.95117  137.29375  142.50066  146.31794  148.92401  150.08999  150.54352  150.39403
   9   138.45982  141.15605  144.41219  147.32224  149.48873  150.35240  150.70699  150.52010
  10   141.38411  143.06422  145.49046  147.91487  149.80711  150.52252  150.80770  150.58855
1
  HEAD             IN LAYER   1 AT END OF TIME STEP 183 IN STRESS PERIOD    7
  ---------------------------------------------------------------------------

           9         10         11         12         13         14         15
 .............................................................................
   1   148.49475  146.33422  143.02280  138.32251  131.62458  121.77254  106.05199
   2   148.56457  146.42611  143.16480  138.56984  132.10483  122.66137  107.17272
   3   148.70016  146.59069  143.40517  138.98647  132.97815  124.77600  113.93865
   4   148.88060  146.79352  143.66433  139.38056  133.67983  125.99959  115.39517
   5   149.07819  147.00054  143.88368  139.65246  134.10338  126.81387  117.63149
   6   149.28994  147.19125  144.03633  139.74933  134.07827  126.49354  116.97924
   7   149.49818  147.36271  144.14519  139.74200  133.73825  124.95913  110.34000
   8   149.68030  147.51948  144.26354  139.82260  133.77402  124.91092  110.18929
   9   149.79454  147.64354  144.39145  140.00821  134.21645  126.33100  115.92584
  10   149.84107  147.71157  144.47434  140.14121  134.49900  126.94752  116.82477
1
  HEAD             IN LAYER   2 AT END OF TIME STEP 183 IN STRESS PERIOD    7
  ---------------------------------------------------------------------------

           1          2          3          4          5          6          7          8
 ........................................................................................
   1   134.13929  136.48140  139.74233  142.90627  145.45394  147.16241  147.94372  147.75894
   2   132.25140  135.43011  139.27668  142.73319  145.41131  147.17573  147.98134  147.81123
   3   129.49783  134.24495  138.83554  142.60434  145.41529  147.23571  148.06303  147.91134
   4   131.55181  134.97605  139.09879  142.75778  145.55496  147.37206  148.18542  148.04386
   5   132.81029  135.71486  139.53696  143.06970  145.80893  147.58225  148.34691  148.19459
   6   132.44015  135.83484  139.88464  143.45041  146.14505  147.84797  148.54811  148.36542
   7   131.40949  136.05949  140.45662  143.99950  146.57498  148.14558  148.76895  148.54867
   8   135.46191  138.36588  141.80387  144.83287  147.10224  148.46079  148.98787  148.72183
   9   138.84820  140.65625  143.19215  145.65935  147.59680  148.75140  149.17529  148.85970
  10   140.60330  141.95099  144.01912  146.15838  147.89191  148.92525  149.28433  148.93633
1
  HEAD             IN LAYER   2 AT END OF TIME STEP 183 IN STRESS PERIOD    7
  ---------------------------------------------------------------------------

           9         10         11         12         13         14         15
 .............................................................................
   1   146.57622  144.35297  141.03212  136.56000  130.95849  124.61214  119.02769
   2   146.64393  144.44558  141.17225  136.79043  131.35077  125.25000  119.91272
   3   146.76829  144.60823  141.40863  137.17119  132.00755  126.39859  121.81209
   4   146.92830  144.80376  141.66823  137.55252  132.60468  127.31589  123.04331
   5   147.10326  144.99863  141.89300  137.83367  132.98539  127.85493  123.80759
   6   147.28250  145.17474  142.05826  137.97578  133.06929  127.81108  123.59414
   7   147.45610  145.33000  142.18158  138.03609  132.98028  127.36436  122.45270
   8   147.61064  145.46747  142.30021  138.13436  133.05215  127.39556  122.43736
   9   147.72694  145.57721  142.41492  138.28512  133.31710  127.95022  123.56925
  10   147.78891  145.63917  142.48734  138.39257  133.51079  128.30816  124.12333

 HEAD WILL BE SAVED ON UNIT 1017 AT END OF TIME STEP  183, STRESS PERIOD    7

 IBOUND WILL BE SAVED ON UNIT 1018 AT END OF TIME STEP  183, STRESS PERIOD    7
1
  VOLUME BUDGET FOR ENTIRE MODEL AT END OF TIME STEP  183, STRESS PERIOD   7
  ------------------------------------------------------------------------------

     CUMULATIVE VOLUME      L**3       RATES FOR THIS TIME STEP      L**3/T
     ------------------                 ------------------------

           IN:                                      IN:
           ---                                      ---
             STORAGE =      496698.2328               STORAGE =       26767.4616
    WELLS NEAR RIVER =           0.0000      WELLS NEAR RIVER =           0.0000
               RIVER =           0.0000                 RIVER =           0.0000
           GHB LAKES =           0.0000             GHB LAKES =           0.0000
            RECHARGE =    35712239.5833              RECHARGE =       53906.2500
             ET SEGS =           0.0000               ET SEGS =           0.0000

            TOTAL IN =    36208937.8161              TOTAL IN =       80673.7116

          OUT:                                     OUT:
          ----                                     ----
             STORAGE =     8754966.7455               STORAGE =           0.0000
    WELLS NEAR RIVER =        5570.0000      WELLS NEAR RIVER =           0.0000
               RIVER =    13518953.6508                 RIVER =       40462.3696
           GHB LAKES =    10399107.8525             GHB LAKES =       31776.5959
            RECHARGE =           0.0000              RECHARGE =           0.0000
             ET SEGS =     3530339.5808               ET SEGS =        8434.7461

           TOTAL OUT =    36208937.8295             TOTAL OUT =       80673.7116

            IN - OUT =      -1.3429E-02              IN - OUT =       7.1661E-05

 PERCENT DISCREPANCY =          -0.00     PERCENT DISCREPANCY =           0.00






         TIME SUMMARY AT END OF TIME STEP  183 IN STRESS PERIOD    7
                    SECONDS     MINUTES      HOURS       DAYS        YEARS
                    -----------------------------------------------------------
   TIME STEP LENGTH  86400.      1440.0      24.000     1.00000     2.73785E-03
 STRESS PERIOD TIME 1.58112E+07 2.63520E+05  4392.0      183.00     0.50103    
         TOTAL TIME 2.89440E+07 4.82400E+05  8040.0      335.00     0.91718    

 REUSING STORAGE VALUES FROM LAST STRESS PERIOD
 #        k         i         j      flow      var1    var2 var3

 REUSING WELS FROM LAST STRESS PERIOD

 REUSING RIVS FROM LAST STRESS PERIOD

 REUSING GHBS FROM LAST STRESS PERIOD

                 RECHARGE =  1.000000E-03

 REUSING EVTS FROM LAST STRESS PERIOD
RIV   no.    1 value from time series:   101.00     for time:  335.0     to  336.0    
RIV   no.    2 value from time series:   101.00     for time:  335.0     to  336.0    
RIV   no.    3 value from time series:   111.50     for time:  335.0     to  336.0    
RIV   no.    4 value from time series:   111.50     for time:  335.0     to  336.0    
RIV   no.    5 value from time series:   115.10     for time:  335.0     to  336.0    
RIV   no.    6 value from time series:   115.10     for time:  335.0     to  336.0    
RIV   no.    7 value from time series:   104.00     for time:  335.0     to  336.0    
RIV   no.    8 value from time series:   104.00     for time:  335.0     to  336.0    
RIV   no.    9 value from time series:   113.50     for time:  335.0     to  336.0    
RIV   no.   10 value from time series:   113.50     for time:  335.0     to  336.0    
RIV   no.    1 value from time series:   101.00     for time:  335.0     to  336.0    
RIV   no.    2 value from time series:   101.00     for time:  335.0     to  336.0    
RIV   no.    3 value from time series:   111.50     for time:  335.0     to  336.0    
RIV   no.    4 value from time series:   111.50     for time:  335.0     to  336.0    
RIV   no.    5 value from time series:   115.10     for time:  335.0     to  336.0    
RIV   no.    6 value from time series:   115.10     for time:  335.0     to  336.0    
RIV   no.    7 value from time series:   104.00     for time:  335.0     to  336.0    
RIV   no.    8 value from time series:   104.00     for time:  335.0     to  336.0    
RIV   no.    9 value from time series:   113.50     for time:  335.0     to  336.0    
RIV   no.   10 value from time series:   113.50     for time:  335.0     to  336.0    

 NO OUTPUT CONTROL FOR STRESS PERIOD    8   TIME STEP    1
RIV   no.    1 value from time series:   101.00     for time:  336.0     to  337.0    
RIV   no.    2 value from time series:   101.00     for time:  336.0     to  337.0    
RIV   no.    3 value from time series:   111.50     for time:  336.0     to  337.0    
RIV   no.    4 value from time series:   111.50     for time:  336.0     to  337.0    
RIV   no.    5 value from time series:   115.10     for time:  336.0     to  337.0    
RIV   no.    6 value from time series:   115.10     for time:  336.0     to  337.0    
RIV   no.    7 value from time series:   104.00     for time:  336.0     to  337.0    
RIV   no.    8 value from time series:   104.00     for time:  336.0     to  337.0    
RIV   no.    9 value from time series:   113.50     for time:  336.0     to  337.0    
RIV   no.   10 value from time series:   113.50     for time:  336.0     to  337.0    
RIV   no.    1 value from time series:   101.00     for time:  336.0     to  337.0    
RIV   no.    2 value from time series:   101.00     for time:  336.0     to  337.0    
RIV   no.    3 value from time series:   111.50     for time:  336.0     to  337.0    
RIV   no.    4 value from time series:   111.50     for time:  336.0     to  337.0    
RIV   no.    5 value from time series:   115.10     for time:  336.0     to  337.0    
RIV   no.    6 value from time series:   115.10     for time:  336.0     to  337.0    
RIV   no.    7 value from time series:   104.00     for time:  336.0     to  337.0    
RIV   no.    8 value from time series:   104.00     for time:  336.0     to  337.0    
RIV   no.    9 value from time series:   113.50     for time:  336.0     to  337.0    
RIV   no.   10 value from time series:   113.50     for time:  336.0     to  337.0    

 NO OUTPUT CONTROL FOR STRESS PERIOD    8   TIME STEP    2
RIV   no.    1 value from time series:   101.00     for time:  337.0     to  338.0    
RIV   no.    2 value from time series:   101.00     for time:  337.0     to  338.0    
RIV   no.    3 value from time series:   111.50     for time:  337.0     to  338.0    
RIV   no.    4 value from time series:   111.50     for time:  337.0     to  338.0    
RIV   no.    5 value from time series:   115.10     for time:  337.0     to  338.0    
RIV   no.    6 value from time series:   115.10     for time:  337.0     to  338.0    
RIV   no.    7 value from time series:   104.00     for time:  337.0     to  338.0    
RIV   no.    8 value from time series:   104.00     for time:  337.0     to  338.0    
RIV   no.    9 value from time series:   113.50     for time:  337.0     to  338.0    
RIV   no.   10 value from time series:   113.50     for time:  337.0     to  338.0    
RIV   no.    1 value from time series:   101.00     for time:  337.0     to  338.0    
RIV   no.    2 value from time series:   101.00     for time:  337.0     to  338.0    
RIV   no.    3 value from time series:   111.50     for time:  337.0     to  338.0    
RIV   no.    4 value from time series:   111.50     for time:  337.0     to  338.0    
RIV   no.    5 value from time series:   115.10     for time:  337.0     to  338.0    
RIV   no.    6 value from time series:   115.10     for time:  337.0     to  338.0    
RIV   no.    7 value from time series:   104.00     for time:  337.0     to  338.0    
RIV   no.    8 value from time series:   104.00     for time:  337.0     to  338.0    
RIV   no.    9 value from time series:   113.50     for time:  337.0     to  338.0    
RIV   no.   10 value from time series:   113.50     for time:  337.0     to  338.0    

 NO OUTPUT CONTROL FOR STRESS PERIOD    8   TIME STEP    3
RIV   no.    1 value from time series:   101.00     for time:  338.0     to  339.0    
RIV   no.    2 value from time series:   101.00     for time:  338.0     to  339.0    
RIV   no.    3 value from time series:   111.50     for time:  338.0     to  339.0    
RIV   no.    4 value from time series:   111.50     for time:  338.0     to  339.0    
RIV   no.    5 value from time series:   115.10     for time:  338.0     to  339.0    
RIV   no.    6 value from time series:   115.10     for time:  338.0     to  339.0    
RIV   no.    7 value from time series:   104.00     for time:  338.0     to  339.0    
RIV   no.    8 value from time series:   104.00     for time:  338.0     to  339.0    
RIV   no.    9 value from time series:   113.50     for time:  338.0     to  339.0    
RIV   no.   10 value from time series:   113.50     for time:  338.0     to  339.0    
RIV   no.    1 value from time series:   101.00     for time:  338.0     to  339.0    
RIV   no.    2 value from time series:   101.00     for time:  338.0     to  339.0    
RIV   no.    3 value from time series:   111.50     for time:  338.0     to  339.0    
RIV   no.    4 value from time series:   111.50     for time:  338.0     to  339.0    
RIV   no.    5 value from time series:   115.10     for time:  338.0     to  339.0    
RIV   no.    6 value from time series:   115.10     for time:  338.0     to  339.0    
RIV   no.    7 value from time series:   104.00     for time:  338.0     to  339.0    
RIV   no.    8 value from time series:   104.00     for time:  338.0     to  339.0    
RIV   no.    9 value from time series:   113.50     for time:  338.0     to  339.0    
RIV   no.   10 value from time series:   113.50     for time:  338.0     to  339.0    

 NO OUTPUT CONTROL FOR STRESS PERIOD    8   TIME STEP    4
RIV   no.    1 value from time series:   101.00     for time:  339.0     to  340.0    
RIV   no.    2 value from time series:   101.00     for time:  339.0     to  340.0    
RIV   no.    3 value from time series:   111.50     for time:  339.0     to  340.0    
RIV   no.    4 value from time series:   111.50     for time:  339.0     to  340.0    
RIV   no.    5 value from time series:   115.10     for time:  339.0     to  340.0    
RIV   no.    6 value from time series:   115.10     for time:  339.0     to  340.0    
RIV   no.    7 value from time series:   104.00     for time:  339.0     to  340.0    
RIV   no.    8 value from time series:   104.00     for time:  339.0     to  340.0    
RIV   no.    9 value from time series:   113.50     for time:  339.0     to  340.0    
RIV   no.   10 value from time series:   113.50     for time:  339.0     to  340.0    
RIV   no.    1 value from time series:   101.00     for time:  339.0     to  340.0    
RIV   no.    2 value from time series:   101.00     for time:  339.0     to  340.0    
RIV   no.    3 value from time series:   111.50     for time:  339.0     to  340.0    
RIV   no.    4 value from time series:   111.50     for time:  339.0     to  340.0    
RIV   no.    5 value from time series:   115.10     for time:  339.0     to  340.0    
RIV   no.    6 value from time series:   115.10     for time:  339.0     to  340.0    
RIV   no.    7 value from time series:   104.00     for time:  339.0     to  340.0    
RIV   no.    8 value from time series:   104.00     for time:  339.0     to  340.0    
RIV   no.    9 value from time series:   113.50     for time:  339.0     to  340.0    
RIV   no.   10 value from time series:   113.50     for time:  339.0     to  340.0    

 NO OUTPUT CONTROL FOR STRESS PERIOD    8   TIME STEP    5
RIV   no.    1 value from time series:   101.00     for time:  340.0     to  341.0    
RIV   no.    2 value from time series:   101.00     for time:  340.0     to  341.0    
RIV   no.    3 value from time series:   111.50     for time:  340.0     to  341.0    
RIV   no.    4 value from time series:   111.50     for time:  340.0     to  341.0    
RIV   no.    5 value from time series:   115.10     for time:  340.0     to  341.0    
RIV   no.    6 value from time series:   115.10     for time:  340.0     to  341.0    
RIV   no.    7 value from time series:   104.00     for time:  340.0     to  341.0    
RIV   no.    8 value from time series:   104.00     for time:  340.0     to  341.0    
RIV   no.    9 value from time series:   113.50     for time:  340.0     to  341.0    
RIV   no.   10 value from time series:   113.50     for time:  340.0     to  341.0    
RIV   no.    1 value from time series:   101.00     for time:  340.0     to  341.0    
RIV   no.    2 value from time series:   101.00     for time:  340.0     to  341.0    
RIV   no.    3 value from time series:   111.50     for time:  340.0     to  341.0    
RIV   no.    4 value from time series:   111.50     for time:  340.0     to  341.0    
RIV   no.    5 value from time series:   115.10     for time:  340.0     to  341.0    
RIV   no.    6 value from time series:   115.10     for time:  340.0     to  341.0    
RIV   no.    7 value from time series:   104.00     for time:  340.0     to  341.0    
RIV   no.    8 value from time series:   104.00     for time:  340.0     to  341.0    
RIV   no.    9 value from time series:   113.50     for time:  340.0     to  341.0    
RIV   no.   10 value from time series:   113.50     for time:  340.0     to  341.0    

 NO OUTPUT CONTROL FOR STRESS PERIOD    8   TIME STEP    6
RIV   no.    1 value from time series:   101.00     for time:  341.0     to  342.0    
RIV   no.    2 value from time series:   101.00     for time:  341.0     to  342.0    
RIV   no.    3 value from time series:   111.50     for time:  341.0     to  342.0    
RIV   no.    4 value from time series:   111.50     for time:  341.0     to  342.0    
RIV   no.    5 value from time series:   115.10     for time:  341.0     to  342.0    
RIV   no.    6 value from time series:   115.10     for time:  341.0     to  342.0    
RIV   no.    7 value from time series:   104.00     for time:  341.0     to  342.0    
RIV   no.    8 value from time series:   104.00     for time:  341.0     to  342.0    
RIV   no.    9 value from time series:   113.50     for time:  341.0     to  342.0    
RIV   no.   10 value from time series:   113.50     for time:  341.0     to  342.0    
RIV   no.    1 value from time series:   101.00     for time:  341.0     to  342.0    
RIV   no.    2 value from time series:   101.00     for time:  341.0     to  342.0    
RIV   no.    3 value from time series:   111.50     for time:  341.0     to  342.0    
RIV   no.    4 value from time series:   111.50     for time:  341.0     to  342.0    
RIV   no.    5 value from time series:   115.10     for time:  341.0     to  342.0    
RIV   no.    6 value from time series:   115.10     for time:  341.0     to  342.0    
RIV   no.    7 value from time series:   104.00     for time:  341.0     to  342.0    
RIV   no.    8 value from time series:   104.00     for time:  341.0     to  342.0    
RIV   no.    9 value from time series:   113.50     for time:  341.0     to  342.0    
RIV   no.   10 value from time series:   113.50     for time:  341.0     to  342.0    

 NO OUTPUT CONTROL FOR STRESS PERIOD    8   TIME STEP    7
RIV   no.    1 value from time series:   101.00     for time:  342.0     to  343.0    
RIV   no.    2 value from time series:   101.00     for time:  342.0     to  343.0    
RIV   no.    3 value from time series:   111.50     for time:  342.0     to  343.0    
RIV   no.    4 value from time series:   111.50     for time:  342.0     to  343.0    
RIV   no.    5 value from time series:   115.10     for time:  342.0     to  343.0    
RIV   no.    6 value from time series:   115.10     for time:  342.0     to  343.0    
RIV   no.    7 value from time series:   104.00     for time:  342.0     to  343.0    
RIV   no.    8 value from time series:   104.00     for time:  342.0     to  343.0    
RIV   no.    9 value from time series:   113.50     for time:  342.0     to  343.0    
RIV   no.   10 value from time series:   113.50     for time:  342.0     to  343.0    
RIV   no.    1 value from time series:   101.00     for time:  342.0     to  343.0    
RIV   no.    2 value from time series:   101.00     for time:  342.0     to  343.0    
RIV   no.    3 value from time series:   111.50     for time:  342.0     to  343.0    
RIV   no.    4 value from time series:   111.50     for time:  342.0     to  343.0    
RIV   no.    5 value from time series:   115.10     for time:  342.0     to  343.0    
RIV   no.    6 value from time series:   115.10     for time:  342.0     to  343.0    
RIV   no.    7 value from time series:   104.00     for time:  342.0     to  343.0    
RIV   no.    8 value from time series:   104.00     for time:  342.0     to  343.0    
RIV   no.    9 value from time series:   113.50     for time:  342.0     to  343.0    
RIV   no.   10 value from time series:   113.50     for time:  342.0     to  343.0    

 NO OUTPUT CONTROL FOR STRESS PERIOD    8   TIME STEP    8
RIV   no.    1 value from time series:   101.00     for time:  343.0     to  344.0    
RIV   no.    2 value from time series:   101.00     for time:  343.0     to  344.0    
RIV   no.    3 value from time series:   111.50     for time:  343.0     to  344.0    
RIV   no.    4 value from time series:   111.50     for time:  343.0     to  344.0    
RIV   no.    5 value from time series:   115.10     for time:  343.0     to  344.0    
RIV   no.    6 value from time series:   115.10     for time:  343.0     to  344.0    
RIV   no.    7 value from time series:   104.00     for time:  343.0     to  344.0    
RIV   no.    8 value from time series:   104.00     for time:  343.0     to  344.0    
RIV   no.    9 value from time series:   113.50     for time:  343.0     to  344.0    
RIV   no.   10 value from time series:   113.50     for time:  343.0     to  344.0    
RIV   no.    1 value from time series:   101.00     for time:  343.0     to  344.0    
RIV   no.    2 value from time series:   101.00     for time:  343.0     to  344.0    
RIV   no.    3 value from time series:   111.50     for time:  343.0     to  344.0    
RIV   no.    4 value from time series:   111.50     for time:  343.0     to  344.0    
RIV   no.    5 value from time series:   115.10     for time:  343.0     to  344.0    
RIV   no.    6 value from time series:   115.10     for time:  343.0     to  344.0    
RIV   no.    7 value from time series:   104.00     for time:  343.0     to  344.0    
RIV   no.    8 value from time series:   104.00     for time:  343.0     to  344.0    
RIV   no.    9 value from time series:   113.50     for time:  343.0     to  344.0    
RIV   no.   10 value from time series:   113.50     for time:  343.0     to  344.0    

 NO OUTPUT CONTROL FOR STRESS PERIOD    8   TIME STEP    9
RIV   no.    1 value from time series:   101.00     for time:  344.0     to  345.0    
RIV   no.    2 value from time series:   101.00     for time:  344.0     to  345.0    
RIV   no.    3 value from time series:   111.50     for time:  344.0     to  345.0    
RIV   no.    4 value from time series:   111.50     for time:  344.0     to  345.0    
RIV   no.    5 value from time series:   115.10     for time:  344.0     to  345.0    
RIV   no.    6 value from time series:   115.10     for time:  344.0     to  345.0    
RIV   no.    7 value from time series:   104.00     for time:  344.0     to  345.0    
RIV   no.    8 value from time series:   104.00     for time:  344.0     to  345.0    
RIV   no.    9 value from time series:   113.50     for time:  344.0     to  345.0    
RIV   no.   10 value from time series:   113.50     for time:  344.0     to  345.0    
RIV   no.    1 value from time series:   101.00     for time:  344.0     to  345.0    
RIV   no.    2 value from time series:   101.00     for time:  344.0     to  345.0    
RIV   no.    3 value from time series:   111.50     for time:  344.0     to  345.0    
RIV   no.    4 value from time series:   111.50     for time:  344.0     to  345.0    
RIV   no.    5 value from time series:   115.10     for time:  344.0     to  345.0    
RIV   no.    6 value from time series:   115.10     for time:  344.0     to  345.0    
RIV   no.    7 value from time series:   104.00     for time:  344.0     to  345.0    
RIV   no.    8 value from time series:   104.00     for time:  344.0     to  345.0    
RIV   no.    9 value from time series:   113.50     for time:  344.0     to  345.0    
RIV   no.   10 value from time series:   113.50     for time:  344.0     to  345.0    

 NO OUTPUT CONTROL FOR STRESS PERIOD    8   TIME STEP   10
RIV   no.    1 value from time series:   101.00     for time:  345.0     to  346.0    
RIV   no.    2 value from time series:   101.00     for time:  345.0     to  346.0    
RIV   no.    3 value from time series:   111.50     for time:  345.0     to  346.0    
RIV   no.    4 value from time series:   111.50     for time:  345.0     to  346.0    
RIV   no.    5 value from time series:   115.10     for time:  345.0     to  346.0    
RIV   no.    6 value from time series:   115.10     for time:  345.0     to  346.0    
RIV   no.    7 value from time series:   104.00     for time:  345.0     to  346.0    
RIV   no.    8 value from time series:   104.00     for time:  345.0     to  346.0    
RIV   no.    9 value from time series:   113.50     for time:  345.0     to  346.0    
RIV   no.   10 value from time series:   113.50     for time:  345.0     to  346.0    
RIV   no.    1 value from time series:   101.00     for time:  345.0     to  346.0    
RIV   no.    2 value from time series:   101.00     for time:  345.0     to  346.0    
RIV   no.    3 value from time series:   111.50     for time:  345.0     to  346.0    
RIV   no.    4 value from time series:   111.50     for time:  345.0     to  346.0    
RIV   no.    5 value from time series:   115.10     for time:  345.0     to  346.0    
RIV   no.    6 value from time series:   115.10     for time:  345.0     to  346.0    
RIV   no.    7 value from time series:   104.00     for time:  345.0     to  346.0    
RIV   no.    8 value from time series:   104.00     for time:  345.0     to  346.0    
RIV   no.    9 value from time series:   113.50     for time:  345.0     to  346.0    
RIV   no.   10 value from time series:   113.50     for time:  345.0     to  346.0    

 NO OUTPUT CONTROL FOR STRESS PERIOD    8   TIME STEP   11
RIV   no.    1 value from time series:   101.00     for time:  346.0     to  347.0    
RIV   no.    2 value from time series:   101.00     for time:  346.0     to  347.0    
RIV   no.    3 value from time series:   111.50     for time:  346.0     to  347.0    
RIV   no.    4 value from time series:   111.50     for time:  346.0     to  347.0    
RIV   no.    5 value from time series:   115.10     for time:  346.0     to  347.0    
RIV   no.    6 value from time series:   115.10     for time:  346.0     to  347.0    
RIV   no.    7 value from time series:   104.00     for time:  346.0     to  347.0    
RIV   no.    8 value from time series:   104.00     for time:  346.0     to  347.0    
RIV   no.    9 value from time series:   113.50     for time:  346.0     to  347.0    
RIV   no.   10 value from time series:   113.50     for time:  346.0     to  347.0    
RIV   no.    1 value from time series:   101.00     for time:  346.0     to  347.0    
RIV   no.    2 value from time series:   101.00     for time:  346.0     to  347.0    
RIV   no.    3 value from time series:   111.50     for time:  346.0     to  347.0    
RIV   no.    4 value from time series:   111.50     for time:  346.0     to  347.0    
RIV   no.    5 value from time series:   115.10     for time:  346.0     to  347.0    
RIV   no.    6 value from time series:   115.10     for time:  346.0     to  347.0    
RIV   no.    7 value from time series:   104.00     for time:  346.0     to  347.0    
RIV   no.    8 value from time series:   104.00     for time:  346.0     to  347.0    
RIV   no.    9 value from time series:   113.50     for time:  346.0     to  347.0    
RIV   no.   10 value from time series:   113.50     for time:  346.0     to  347.0    

 NO OUTPUT CONTROL FOR STRESS PERIOD    8   TIME STEP   12
RIV   no.    1 value from time series:   101.00     for time:  347.0     to  348.0    
RIV   no.    2 value from time series:   101.00     for time:  347.0     to  348.0    
RIV   no.    3 value from time series:   111.50     for time:  347.0     to  348.0    
RIV   no.    4 value from time series:   111.50     for time:  347.0     to  348.0    
RIV   no.    5 value from time series:   115.10     for time:  347.0     to  348.0    
RIV   no.    6 value from time series:   115.10     for time:  347.0     to  348.0    
RIV   no.    7 value from time series:   104.00     for time:  347.0     to  348.0    
RIV   no.    8 value from time series:   104.00     for time:  347.0     to  348.0    
RIV   no.    9 value from time series:   113.50     for time:  347.0     to  348.0    
RIV   no.   10 value from time series:   113.50     for time:  347.0     to  348.0    
RIV   no.    1 value from time series:   101.00     for time:  347.0     to  348.0    
RIV   no.    2 value from time series:   101.00     for time:  347.0     to  348.0    
RIV   no.    3 value from time series:   111.50     for time:  347.0     to  348.0    
RIV   no.    4 value from time series:   111.50     for time:  347.0     to  348.0    
RIV   no.    5 value from time series:   115.10     for time:  347.0     to  348.0    
RIV   no.    6 value from time series:   115.10     for time:  347.0     to  348.0    
RIV   no.    7 value from time series:   104.00     for time:  347.0     to  348.0    
RIV   no.    8 value from time series:   104.00     for time:  347.0     to  348.0    
RIV   no.    9 value from time series:   113.50     for time:  347.0     to  348.0    
RIV   no.   10 value from time series:   113.50     for time:  347.0     to  348.0    

 NO OUTPUT CONTROL FOR STRESS PERIOD    8   TIME STEP   13
RIV   no.    1 value from time series:   101.00     for time:  348.0     to  349.0    
RIV   no.    2 value from time series:   101.00     for time:  348.0     to  349.0    
RIV   no.    3 value from time series:   111.50     for time:  348.0     to  349.0    
RIV   no.    4 value from time series:   111.50     for time:  348.0     to  349.0    
RIV   no.    5 value from time series:   115.10     for time:  348.0     to  349.0    
RIV   no.    6 value from time series:   115.10     for time:  348.0     to  349.0    
RIV   no.    7 value from time series:   104.00     for time:  348.0     to  349.0    
RIV   no.    8 value from time series:   104.00     for time:  348.0     to  349.0    
RIV   no.    9 value from time series:   113.50     for time:  348.0     to  349.0    
RIV   no.   10 value from time series:   113.50     for time:  348.0     to  349.0    
RIV   no.    1 value from time series:   101.00     for time:  348.0     to  349.0    
RIV   no.    2 value from time series:   101.00     for time:  348.0     to  349.0    
RIV   no.    3 value from time series:   111.50     for time:  348.0     to  349.0    
RIV   no.    4 value from time series:   111.50     for time:  348.0     to  349.0    
RIV   no.    5 value from time series:   115.10     for time:  348.0     to  349.0    
RIV   no.    6 value from time series:   115.10     for time:  348.0     to  349.0    
RIV   no.    7 value from time series:   104.00     for time:  348.0     to  349.0    
RIV   no.    8 value from time series:   104.00     for time:  348.0     to  349.0    
RIV   no.    9 value from time series:   113.50     for time:  348.0     to  349.0    
RIV   no.   10 value from time series:   113.50     for time:  348.0     to  349.0    

 NO OUTPUT CONTROL FOR STRESS PERIOD    8   TIME STEP   14
RIV   no.    1 value from time series:   101.00     for time:  349.0     to  350.0    
RIV   no.    2 value from time series:   101.00     for time:  349.0     to  350.0    
RIV   no.    3 value from time series:   111.50     for time:  349.0     to  350.0    
RIV   no.    4 value from time series:   111.50     for time:  349.0     to  350.0    
RIV   no.    5 value from time series:   115.10     for time:  349.0     to  350.0    
RIV   no.    6 value from time series:   115.10     for time:  349.0     to  350.0    
RIV   no.    7 value from time series:   104.00     for time:  349.0     to  350.0    
RIV   no.    8 value from time series:   104.00     for time:  349.0     to  350.0    
RIV   no.    9 value from time series:   113.50     for time:  349.0     to  350.0    
RIV   no.   10 value from time series:   113.50     for time:  349.0     to  350.0    
RIV   no.    1 value from time series:   101.00     for time:  349.0     to  350.0    
RIV   no.    2 value from time series:   101.00     for time:  349.0     to  350.0    
RIV   no.    3 value from time series:   111.50     for time:  349.0     to  350.0    
RIV   no.    4 value from time series:   111.50     for time:  349.0     to  350.0    
RIV   no.    5 value from time series:   115.10     for time:  349.0     to  350.0    
RIV   no.    6 value from time series:   115.10     for time:  349.0     to  350.0    
RIV   no.    7 value from time series:   104.00     for time:  349.0     to  350.0    
RIV   no.    8 value from time series:   104.00     for time:  349.0     to  350.0    
RIV   no.    9 value from time series:   113.50     for time:  349.0     to  350.0    
RIV   no.   10 value from time series:   113.50     for time:  349.0     to  350.0    

 NO OUTPUT CONTROL FOR STRESS PERIOD    8   TIME STEP   15
RIV   no.    1 value from time series:   101.00     for time:  350.0     to  351.0    
RIV   no.    2 value from time series:   101.00     for time:  350.0     to  351.0    
RIV   no.    3 value from time series:   111.50     for time:  350.0     to  351.0    
RIV   no.    4 value from time series:   111.50     for time:  350.0     to  351.0    
RIV   no.    5 value from time series:   115.10     for time:  350.0     to  351.0    
RIV   no.    6 value from time series:   115.10     for time:  350.0     to  351.0    
RIV   no.    7 value from time series:   104.00     for time:  350.0     to  351.0    
RIV   no.    8 value from time series:   104.00     for time:  350.0     to  351.0    
RIV   no.    9 value from time series:   113.50     for time:  350.0     to  351.0    
RIV   no.   10 value from time series:   113.50     for time:  350.0     to  351.0    
RIV   no.    1 value from time series:   101.00     for time:  350.0     to  351.0    
RIV   no.    2 value from time series:   101.00     for time:  350.0     to  351.0    
RIV   no.    3 value from time series:   111.50     for time:  350.0     to  351.0    
RIV   no.    4 value from time series:   111.50     for time:  350.0     to  351.0    
RIV   no.    5 value from time series:   115.10     for time:  350.0     to  351.0    
RIV   no.    6 value from time series:   115.10     for time:  350.0     to  351.0    
RIV   no.    7 value from time series:   104.00     for time:  350.0     to  351.0    
RIV   no.    8 value from time series:   104.00     for time:  350.0     to  351.0    
RIV   no.    9 value from time series:   113.50     for time:  350.0     to  351.0    
RIV   no.   10 value from time series:   113.50     for time:  350.0     to  351.0    

 NO OUTPUT CONTROL FOR STRESS PERIOD    8   TIME STEP   16
RIV   no.    1 value from time series:   101.00     for time:  351.0     to  352.0    
RIV   no.    2 value from time series:   101.00     for time:  351.0     to  352.0    
RIV   no.    3 value from time series:   111.50     for time:  351.0     to  352.0    
RIV   no.    4 value from time series:   111.50     for time:  351.0     to  352.0    
RIV   no.    5 value from time series:   115.10     for time:  351.0     to  352.0    
RIV   no.    6 value from time series:   115.10     for time:  351.0     to  352.0    
RIV   no.    7 value from time series:   104.00     for time:  351.0     to  352.0    
RIV   no.    8 value from time series:   104.00     for time:  351.0     to  352.0    
RIV   no.    9 value from time series:   113.50     for time:  351.0     to  352.0    
RIV   no.   10 value from time series:   113.50     for time:  351.0     to  352.0    
RIV   no.    1 value from time series:   101.00     for time:  351.0     to  352.0    
RIV   no.    2 value from time series:   101.00     for time:  351.0     to  352.0    
RIV   no.    3 value from time series:   111.50     for time:  351.0     to  352.0    
RIV   no.    4 value from time series:   111.50     for time:  351.0     to  352.0    
RIV   no.    5 value from time series:   115.10     for time:  351.0     to  352.0    
RIV   no.    6 value from time series:   115.10     for time:  351.0     to  352.0    
RIV   no.    7 value from time series:   104.00     for time:  351.0     to  352.0    
RIV   no.    8 value from time series:   104.00     for time:  351.0     to  352.0    
RIV   no.    9 value from time series:   113.50     for time:  351.0     to  352.0    
RIV   no.   10 value from time series:   113.50     for time:  351.0     to  352.0    

 NO OUTPUT CONTROL FOR STRESS PERIOD    8   TIME STEP   17
RIV   no.    1 value from time series:   101.00     for time:  352.0     to  353.0    
RIV   no.    2 value from time series:   101.00     for time:  352.0     to  353.0    
RIV   no.    3 value from time series:   111.50     for time:  352.0     to  353.0    
RIV   no.    4 value from time series:   111.50     for time:  352.0     to  353.0    
RIV   no.    5 value from time series:   115.10     for time:  352.0     to  353.0    
RIV   no.    6 value from time series:   115.10     for time:  352.0     to  353.0    
RIV   no.    7 value from time series:   104.00     for time:  352.0     to  353.0    
RIV   no.    8 value from time series:   104.00     for time:  352.0     to  353.0    
RIV   no.    9 value from time series:   113.50     for time:  352.0     to  353.0    
RIV   no.   10 value from time series:   113.50     for time:  352.0     to  353.0    
RIV   no.    1 value from time series:   101.00     for time:  352.0     to  353.0    
RIV   no.    2 value from time series:   101.00     for time:  352.0     to  353.0    
RIV   no.    3 value from time series:   111.50     for time:  352.0     to  353.0    
RIV   no.    4 value from time series:   111.50     for time:  352.0     to  353.0    
RIV   no.    5 value from time series:   115.10     for time:  352.0     to  353.0    
RIV   no.    6 value from time series:   115.10     for time:  352.0     to  353.0    
RIV   no.    7 value from time series:   104.00     for time:  352.0     to  353.0    
RIV   no.    8 value from time series:   104.00     for time:  352.0     to  353.0    
RIV   no.    9 value from time series:   113.50     for time:  352.0     to  353.0    
RIV   no.   10 value from time series:   113.50     for time:  352.0     to  353.0    

 NO OUTPUT CONTROL FOR STRESS PERIOD    8   TIME STEP   18
RIV   no.    1 value from time series:   101.00     for time:  353.0     to  354.0    
RIV   no.    2 value from time series:   101.00     for time:  353.0     to  354.0    
RIV   no.    3 value from time series:   111.50     for time:  353.0     to  354.0    
RIV   no.    4 value from time series:   111.50     for time:  353.0     to  354.0    
RIV   no.    5 value from time series:   115.10     for time:  353.0     to  354.0    
RIV   no.    6 value from time series:   115.10     for time:  353.0     to  354.0    
RIV   no.    7 value from time series:   104.00     for time:  353.0     to  354.0    
RIV   no.    8 value from time series:   104.00     for time:  353.0     to  354.0    
RIV   no.    9 value from time series:   113.50     for time:  353.0     to  354.0    
RIV   no.   10 value from time series:   113.50     for time:  353.0     to  354.0    
RIV   no.    1 value from time series:   101.00     for time:  353.0     to  354.0    
RIV   no.    2 value from time series:   101.00     for time:  353.0     to  354.0    
RIV   no.    3 value from time series:   111.50     for time:  353.0     to  354.0    
RIV   no.    4 value from time series:   111.50     for time:  353.0     to  354.0    
RIV   no.    5 value from time series:   115.10     for time:  353.0     to  354.0    
RIV   no.    6 value from time series:   115.10     for time:  353.0     to  354.0    
RIV   no.    7 value from time series:   104.00     for time:  353.0     to  354.0    
RIV   no.    8 value from time series:   104.00     for time:  353.0     to  354.0    
RIV   no.    9 value from time series:   113.50     for time:  353.0     to  354.0    
RIV   no.   10 value from time series:   113.50     for time:  353.0     to  354.0    

 NO OUTPUT CONTROL FOR STRESS PERIOD    8   TIME STEP   19
RIV   no.    1 value from time series:   101.00     for time:  354.0     to  355.0    
RIV   no.    2 value from time series:   101.00     for time:  354.0     to  355.0    
RIV   no.    3 value from time series:   111.50     for time:  354.0     to  355.0    
RIV   no.    4 value from time series:   111.50     for time:  354.0     to  355.0    
RIV   no.    5 value from time series:   115.10     for time:  354.0     to  355.0    
RIV   no.    6 value from time series:   115.10     for time:  354.0     to  355.0    
RIV   no.    7 value from time series:   104.00     for time:  354.0     to  355.0    
RIV   no.    8 value from time series:   104.00     for time:  354.0     to  355.0    
RIV   no.    9 value from time series:   113.50     for time:  354.0     to  355.0    
RIV   no.   10 value from time series:   113.50     for time:  354.0     to  355.0    
RIV   no.    1 value from time series:   101.00     for time:  354.0     to  355.0    
RIV   no.    2 value from time series:   101.00     for time:  354.0     to  355.0    
RIV   no.    3 value from time series:   111.50     for time:  354.0     to  355.0    
RIV   no.    4 value from time series:   111.50     for time:  354.0     to  355.0    
RIV   no.    5 value from time series:   115.10     for time:  354.0     to  355.0    
RIV   no.    6 value from time series:   115.10     for time:  354.0     to  355.0    
RIV   no.    7 value from time series:   104.00     for time:  354.0     to  355.0    
RIV   no.    8 value from time series:   104.00     for time:  354.0     to  355.0    
RIV   no.    9 value from time series:   113.50     for time:  354.0     to  355.0    
RIV   no.   10 value from time series:   113.50     for time:  354.0     to  355.0    

 NO OUTPUT CONTROL FOR STRESS PERIOD    8   TIME STEP   20
RIV   no.    1 value from time series:   101.00     for time:  355.0     to  356.0    
RIV   no.    2 value from time series:   101.00     for time:  355.0     to  356.0    
RIV   no.    3 value from time series:   111.50     for time:  355.0     to  356.0    
RIV   no.    4 value from time series:   111.50     for time:  355.0     to  356.0    
RIV   no.    5 value from time series:   115.10     for time:  355.0     to  356.0    
RIV   no.    6 value from time series:   115.10     for time:  355.0     to  356.0    
RIV   no.    7 value from time series:   104.00     for time:  355.0     to  356.0    
RIV   no.    8 value from time series:   104.00     for time:  355.0     to  356.0    
RIV   no.    9 value from time series:   113.50     for time:  355.0     to  356.0    
RIV   no.   10 value from time series:   113.50     for time:  355.0     to  356.0    
RIV   no.    1 value from time series:   101.00     for time:  355.0     to  356.0    
RIV   no.    2 value from time series:   101.00     for time:  355.0     to  356.0    
RIV   no.    3 value from time series:   111.50     for time:  355.0     to  356.0    
RIV   no.    4 value from time series:   111.50     for time:  355.0     to  356.0    
RIV   no.    5 value from time series:   115.10     for time:  355.0     to  356.0    
RIV   no.    6 value from time series:   115.10     for time:  355.0     to  356.0    
RIV   no.    7 value from time series:   104.00     for time:  355.0     to  356.0    
RIV   no.    8 value from time series:   104.00     for time:  355.0     to  356.0    
RIV   no.    9 value from time series:   113.50     for time:  355.0     to  356.0    
RIV   no.   10 value from time series:   113.50     for time:  355.0     to  356.0    

 NO OUTPUT CONTROL FOR STRESS PERIOD    8   TIME STEP   21
RIV   no.    1 value from time series:   101.00     for time:  356.0     to  357.0    
RIV   no.    2 value from time series:   101.00     for time:  356.0     to  357.0    
RIV   no.    3 value from time series:   111.50     for time:  356.0     to  357.0    
RIV   no.    4 value from time series:   111.50     for time:  356.0     to  357.0    
RIV   no.    5 value from time series:   115.10     for time:  356.0     to  357.0    
RIV   no.    6 value from time series:   115.10     for time:  356.0     to  357.0    
RIV   no.    7 value from time series:   104.00     for time:  356.0     to  357.0    
RIV   no.    8 value from time series:   104.00     for time:  356.0     to  357.0    
RIV   no.    9 value from time series:   113.50     for time:  356.0     to  357.0    
RIV   no.   10 value from time series:   113.50     for time:  356.0     to  357.0    
RIV   no.    1 value from time series:   101.00     for time:  356.0     to  357.0    
RIV   no.    2 value from time series:   101.00     for time:  356.0     to  357.0    
RIV   no.    3 value from time series:   111.50     for time:  356.0     to  357.0    
RIV   no.    4 value from time series:   111.50     for time:  356.0     to  357.0    
RIV   no.    5 value from time series:   115.10     for time:  356.0     to  357.0    
RIV   no.    6 value from time series:   115.10     for time:  356.0     to  357.0    
RIV   no.    7 value from time series:   104.00     for time:  356.0     to  357.0    
RIV   no.    8 value from time series:   104.00     for time:  356.0     to  357.0    
RIV   no.    9 value from time series:   113.50     for time:  356.0     to  357.0    
RIV   no.   10 value from time series:   113.50     for time:  356.0     to  357.0    

 NO OUTPUT CONTROL FOR STRESS PERIOD    8   TIME STEP   22
RIV   no.    1 value from time series:   101.00     for time:  357.0     to  358.0    
RIV   no.    2 value from time series:   101.00     for time:  357.0     to  358.0    
RIV   no.    3 value from time series:   111.50     for time:  357.0     to  358.0    
RIV   no.    4 value from time series:   111.50     for time:  357.0     to  358.0    
RIV   no.    5 value from time series:   115.10     for time:  357.0     to  358.0    
RIV   no.    6 value from time series:   115.10     for time:  357.0     to  358.0    
RIV   no.    7 value from time series:   104.00     for time:  357.0     to  358.0    
RIV   no.    8 value from time series:   104.00     for time:  357.0     to  358.0    
RIV   no.    9 value from time series:   113.50     for time:  357.0     to  358.0    
RIV   no.   10 value from time series:   113.50     for time:  357.0     to  358.0    
RIV   no.    1 value from time series:   101.00     for time:  357.0     to  358.0    
RIV   no.    2 value from time series:   101.00     for time:  357.0     to  358.0    
RIV   no.    3 value from time series:   111.50     for time:  357.0     to  358.0    
RIV   no.    4 value from time series:   111.50     for time:  357.0     to  358.0    
RIV   no.    5 value from time series:   115.10     for time:  357.0     to  358.0    
RIV   no.    6 value from time series:   115.10     for time:  357.0     to  358.0    
RIV   no.    7 value from time series:   104.00     for time:  357.0     to  358.0    
RIV   no.    8 value from time series:   104.00     for time:  357.0     to  358.0    
RIV   no.    9 value from time series:   113.50     for time:  357.0     to  358.0    
RIV   no.   10 value from time series:   113.50     for time:  357.0     to  358.0    

 NO OUTPUT CONTROL FOR STRESS PERIOD    8   TIME STEP   23
RIV   no.    1 value from time series:   101.00     for time:  358.0     to  359.0    
RIV   no.    2 value from time series:   101.00     for time:  358.0     to  359.0    
RIV   no.    3 value from time series:   111.50     for time:  358.0     to  359.0    
RIV   no.    4 value from time series:   111.50     for time:  358.0     to  359.0    
RIV   no.    5 value from time series:   115.10     for time:  358.0     to  359.0    
RIV   no.    6 value from time series:   115.10     for time:  358.0     to  359.0    
RIV   no.    7 value from time series:   104.00     for time:  358.0     to  359.0    
RIV   no.    8 value from time series:   104.00     for time:  358.0     to  359.0    
RIV   no.    9 value from time series:   113.50     for time:  358.0     to  359.0    
RIV   no.   10 value from time series:   113.50     for time:  358.0     to  359.0    
RIV   no.    1 value from time series:   101.00     for time:  358.0     to  359.0    
RIV   no.    2 value from time series:   101.00     for time:  358.0     to  359.0    
RIV   no.    3 value from time series:   111.50     for time:  358.0     to  359.0    
RIV   no.    4 value from time series:   111.50     for time:  358.0     to  359.0    
RIV   no.    5 value from time series:   115.10     for time:  358.0     to  359.0    
RIV   no.    6 value from time series:   115.10     for time:  358.0     to  359.0    
RIV   no.    7 value from time series:   104.00     for time:  358.0     to  359.0    
RIV   no.    8 value from time series:   104.00     for time:  358.0     to  359.0    
RIV   no.    9 value from time series:   113.50     for time:  358.0     to  359.0    
RIV   no.   10 value from time series:   113.50     for time:  358.0     to  359.0    

 NO OUTPUT CONTROL FOR STRESS PERIOD    8   TIME STEP   24
RIV   no.    1 value from time series:   101.00     for time:  359.0     to  360.0    
RIV   no.    2 value from time series:   101.00     for time:  359.0     to  360.0    
RIV   no.    3 value from time series:   111.50     for time:  359.0     to  360.0    
RIV   no.    4 value from time series:   111.50     for time:  359.0     to  360.0    
RIV   no.    5 value from time series:   115.10     for time:  359.0     to  360.0    
RIV   no.    6 value from time series:   115.10     for time:  359.0     to  360.0    
RIV   no.    7 value from time series:   104.00     for time:  359.0     to  360.0    
RIV   no.    8 value from time series:   104.00     for time:  359.0     to  360.0    
RIV   no.    9 value from time series:   113.50     for time:  359.0     to  360.0    
RIV   no.   10 value from time series:   113.50     for time:  359.0     to  360.0    
RIV   no.    1 value from time series:   101.00     for time:  359.0     to  360.0    
RIV   no.    2 value from time series:   101.00     for time:  359.0     to  360.0    
RIV   no.    3 value from time series:   111.50     for time:  359.0     to  360.0    
RIV   no.    4 value from time series:   111.50     for time:  359.0     to  360.0    
RIV   no.    5 value from time series:   115.10     for time:  359.0     to  360.0    
RIV   no.    6 value from time series:   115.10     for time:  359.0     to  360.0    
RIV   no.    7 value from time series:   104.00     for time:  359.0     to  360.0    
RIV   no.    8 value from time series:   104.00     for time:  359.0     to  360.0    
RIV   no.    9 value from time series:   113.50     for time:  359.0     to  360.0    
RIV   no.   10 value from time series:   113.50     for time:  359.0     to  360.0    

 NO OUTPUT CONTROL FOR STRESS PERIOD    8   TIME STEP   25
RIV   no.    1 value from time series:   101.00     for time:  360.0     to  361.0    
RIV   no.    2 value from time series:   101.00     for time:  360.0     to  361.0    
RIV   no.    3 value from time series:   111.50     for time:  360.0     to  361.0    
RIV   no.    4 value from time series:   111.50     for time:  360.0     to  361.0    
RIV   no.    5 value from time series:   115.10     for time:  360.0     to  361.0    
RIV   no.    6 value from time series:   115.10     for time:  360.0     to  361.0    
RIV   no.    7 value from time series:   104.00     for time:  360.0     to  361.0    
RIV   no.    8 value from time series:   104.00     for time:  360.0     to  361.0    
RIV   no.    9 value from time series:   113.50     for time:  360.0     to  361.0    
RIV   no.   10 value from time series:   113.50     for time:  360.0     to  361.0    
RIV   no.    1 value from time series:   101.00     for time:  360.0     to  361.0    
RIV   no.    2 value from time series:   101.00     for time:  360.0     to  361.0    
RIV   no.    3 value from time series:   111.50     for time:  360.0     to  361.0    
RIV   no.    4 value from time series:   111.50     for time:  360.0     to  361.0    
RIV   no.    5 value from time series:   115.10     for time:  360.0     to  361.0    
RIV   no.    6 value from time series:   115.10     for time:  360.0     to  361.0    
RIV   no.    7 value from time series:   104.00     for time:  360.0     to  361.0    
RIV   no.    8 value from time series:   104.00     for time:  360.0     to  361.0    
RIV   no.    9 value from time series:   113.50     for time:  360.0     to  361.0    
RIV   no.   10 value from time series:   113.50     for time:  360.0     to  361.0    

 NO OUTPUT CONTROL FOR STRESS PERIOD    8   TIME STEP   26
RIV   no.    1 value from time series:   101.00     for time:  361.0     to  362.0    
RIV   no.    2 value from time series:   101.00     for time:  361.0     to  362.0    
RIV   no.    3 value from time series:   111.50     for time:  361.0     to  362.0    
RIV   no.    4 value from time series:   111.50     for time:  361.0     to  362.0    
RIV   no.    5 value from time series:   115.10     for time:  361.0     to  362.0    
RIV   no.    6 value from time series:   115.10     for time:  361.0     to  362.0    
RIV   no.    7 value from time series:   104.00     for time:  361.0     to  362.0    
RIV   no.    8 value from time series:   104.00     for time:  361.0     to  362.0    
RIV   no.    9 value from time series:   113.50     for time:  361.0     to  362.0    
RIV   no.   10 value from time series:   113.50     for time:  361.0     to  362.0    
RIV   no.    1 value from time series:   101.00     for time:  361.0     to  362.0    
RIV   no.    2 value from time series:   101.00     for time:  361.0     to  362.0    
RIV   no.    3 value from time series:   111.50     for time:  361.0     to  362.0    
RIV   no.    4 value from time series:   111.50     for time:  361.0     to  362.0    
RIV   no.    5 value from time series:   115.10     for time:  361.0     to  362.0    
RIV   no.    6 value from time series:   115.10     for time:  361.0     to  362.0    
RIV   no.    7 value from time series:   104.00     for time:  361.0     to  362.0    
RIV   no.    8 value from time series:   104.00     for time:  361.0     to  362.0    
RIV   no.    9 value from time series:   113.50     for time:  361.0     to  362.0    
RIV   no.   10 value from time series:   113.50     for time:  361.0     to  362.0    

 NO OUTPUT CONTROL FOR STRESS PERIOD    8   TIME STEP   27
RIV   no.    1 value from time series:   101.00     for time:  362.0     to  363.0    
RIV   no.    2 value from time series:   101.00     for time:  362.0     to  363.0    
RIV   no.    3 value from time series:   111.50     for time:  362.0     to  363.0    
RIV   no.    4 value from time series:   111.50     for time:  362.0     to  363.0    
RIV   no.    5 value from time series:   115.10     for time:  362.0     to  363.0    
RIV   no.    6 value from time series:   115.10     for time:  362.0     to  363.0    
RIV   no.    7 value from time series:   104.00     for time:  362.0     to  363.0    
RIV   no.    8 value from time series:   104.00     for time:  362.0     to  363.0    
RIV   no.    9 value from time series:   113.50     for time:  362.0     to  363.0    
RIV   no.   10 value from time series:   113.50     for time:  362.0     to  363.0    
RIV   no.    1 value from time series:   101.00     for time:  362.0     to  363.0    
RIV   no.    2 value from time series:   101.00     for time:  362.0     to  363.0    
RIV   no.    3 value from time series:   111.50     for time:  362.0     to  363.0    
RIV   no.    4 value from time series:   111.50     for time:  362.0     to  363.0    
RIV   no.    5 value from time series:   115.10     for time:  362.0     to  363.0    
RIV   no.    6 value from time series:   115.10     for time:  362.0     to  363.0    
RIV   no.    7 value from time series:   104.00     for time:  362.0     to  363.0    
RIV   no.    8 value from time series:   104.00     for time:  362.0     to  363.0    
RIV   no.    9 value from time series:   113.50     for time:  362.0     to  363.0    
RIV   no.   10 value from time series:   113.50     for time:  362.0     to  363.0    

 NO OUTPUT CONTROL FOR STRESS PERIOD    8   TIME STEP   28
RIV   no.    1 value from time series:   101.00     for time:  363.0     to  364.0    
RIV   no.    2 value from time series:   101.00     for time:  363.0     to  364.0    
RIV   no.    3 value from time series:   111.50     for time:  363.0     to  364.0    
RIV   no.    4 value from time series:   111.50     for time:  363.0     to  364.0    
RIV   no.    5 value from time series:   115.10     for time:  363.0     to  364.0    
RIV   no.    6 value from time series:   115.10     for time:  363.0     to  364.0    
RIV   no.    7 value from time series:   104.00     for time:  363.0     to  364.0    
RIV   no.    8 value from time series:   104.00     for time:  363.0     to  364.0    
RIV   no.    9 value from time series:   113.50     for time:  363.0     to  364.0    
RIV   no.   10 value from time series:   113.50     for time:  363.0     to  364.0    
RIV   no.    1 value from time series:   101.00     for time:  363.0     to  364.0    
RIV   no.    2 value from time series:   101.00     for time:  363.0     to  364.0    
RIV   no.    3 value from time series:   111.50     for time:  363.0     to  364.0    
RIV   no.    4 value from time series:   111.50     for time:  363.0     to  364.0    
RIV   no.    5 value from time series:   115.10     for time:  363.0     to  364.0    
RIV   no.    6 value from time series:   115.10     for time:  363.0     to  364.0    
RIV   no.    7 value from time series:   104.00     for time:  363.0     to  364.0    
RIV   no.    8 value from time series:   104.00     for time:  363.0     to  364.0    
RIV   no.    9 value from time series:   113.50     for time:  363.0     to  364.0    
RIV   no.   10 value from time series:   113.50     for time:  363.0     to  364.0    

 NO OUTPUT CONTROL FOR STRESS PERIOD    8   TIME STEP   29
RIV   no.    1 value from time series:   101.00     for time:  364.0     to  365.0    
RIV   no.    2 value from time series:   101.00     for time:  364.0     to  365.0    
RIV   no.    3 value from time series:   111.50     for time:  364.0     to  365.0    
RIV   no.    4 value from time series:   111.50     for time:  364.0     to  365.0    
RIV   no.    5 value from time series:   115.10     for time:  364.0     to  365.0    
RIV   no.    6 value from time series:   115.10     for time:  364.0     to  365.0    
RIV   no.    7 value from time series:   104.00     for time:  364.0     to  365.0    
RIV   no.    8 value from time series:   104.00     for time:  364.0     to  365.0    
RIV   no.    9 value from time series:   113.50     for time:  364.0     to  365.0    
RIV   no.   10 value from time series:   113.50     for time:  364.0     to  365.0    
RIV   no.    1 value from time series:   101.00     for time:  364.0     to  365.0    
RIV   no.    2 value from time series:   101.00     for time:  364.0     to  365.0    
RIV   no.    3 value from time series:   111.50     for time:  364.0     to  365.0    
RIV   no.    4 value from time series:   111.50     for time:  364.0     to  365.0    
RIV   no.    5 value from time series:   115.10     for time:  364.0     to  365.0    
RIV   no.    6 value from time series:   115.10     for time:  364.0     to  365.0    
RIV   no.    7 value from time series:   104.00     for time:  364.0     to  365.0    
RIV   no.    8 value from time series:   104.00     for time:  364.0     to  365.0    
RIV   no.    9 value from time series:   113.50     for time:  364.0     to  365.0    
RIV   no.   10 value from time series:   113.50     for time:  364.0     to  365.0    

 NO OUTPUT CONTROL FOR STRESS PERIOD    8   TIME STEP   30
RIV   no.    1 value from time series:   101.00     for time:  365.0     to  366.0    
RIV   no.    2 value from time series:   101.00     for time:  365.0     to  366.0    
RIV   no.    3 value from time series:   111.50     for time:  365.0     to  366.0    
RIV   no.    4 value from time series:   111.50     for time:  365.0     to  366.0    
RIV   no.    5 value from time series:   115.10     for time:  365.0     to  366.0    
RIV   no.    6 value from time series:   115.10     for time:  365.0     to  366.0    
RIV   no.    7 value from time series:   104.00     for time:  365.0     to  366.0    
RIV   no.    8 value from time series:   104.00     for time:  365.0     to  366.0    
RIV   no.    9 value from time series:   113.50     for time:  365.0     to  366.0    
RIV   no.   10 value from time series:   113.50     for time:  365.0     to  366.0    
RIV   no.    1 value from time series:   101.00     for time:  365.0     to  366.0    
RIV   no.    2 value from time series:   101.00     for time:  365.0     to  366.0    
RIV   no.    3 value from time series:   111.50     for time:  365.0     to  366.0    
RIV   no.    4 value from time series:   111.50     for time:  365.0     to  366.0    
RIV   no.    5 value from time series:   115.10     for time:  365.0     to  366.0    
RIV   no.    6 value from time series:   115.10     for time:  365.0     to  366.0    
RIV   no.    7 value from time series:   104.00     for time:  365.0     to  366.0    
RIV   no.    8 value from time series:   104.00     for time:  365.0     to  366.0    
RIV   no.    9 value from time series:   113.50     for time:  365.0     to  366.0    
RIV   no.   10 value from time series:   113.50     for time:  365.0     to  366.0    

 OUTPUT CONTROL FOR STRESS PERIOD    8   TIME STEP   31
    PRINT BUDGET
    PRINT HEAD
    PRINT HEAD FOR ALL LAYERS
    SAVE BUDGET
    SAVE HEAD
    SAVE HEAD FOR ALL LAYERS
    SAVE IBOUND
    SAVE IBOUND FOR ALL LAYERS
 UBDSV1 SAVING          STORAGE ON UNIT   1016 AT TIME STEP     31, STRESS PERIOD      8
 UBDSV1 SAVING FLOW RIGHT FACE  ON UNIT   1016 AT TIME STEP     31, STRESS PERIOD      8
 UBDSV1 SAVING FLOW FRONT FACE  ON UNIT   1016 AT TIME STEP     31, STRESS PERIOD      8
 UBDSV1 SAVING FLOW LOWER FACE  ON UNIT   1016 AT TIME STEP     31, STRESS PERIOD      8
 UBDSV4 SAVING WELLS NEAR RIVER ON UNIT   1016 AT TIME STEP     31, STRESS PERIOD      8
 UBDSV4 SAVING RIVER            ON UNIT   1016 AT TIME STEP     31, STRESS PERIOD      8

 RIVER              PERIOD  8   STEP 31
 BOUNDARY      1   LAYER   1   ROW     1   COL    15   RATE    -4835.08    
 BOUNDARY      2   LAYER   1   ROW     2   COL    15   RATE    -5961.14      RIV2
 BOUNDARY      3   LAYER   1   ROW     3   COL    15   RATE    -2227.96      RIV3
 BOUNDARY      4   LAYER   1   ROW     4   COL    15   RATE    -3690.25    
 BOUNDARY      5   LAYER   1   ROW     5   COL    15   RATE    -2325.48    
 BOUNDARY      6   LAYER   1   ROW     6   COL    15   RATE    -1672.66    
 BOUNDARY      7   LAYER   1   ROW     7   COL    15   RATE    -6159.03      RIVX
 BOUNDARY      8   LAYER   1   ROW     8   COL    15   RATE    -6013.77      RIVX
 BOUNDARY      9   LAYER   1   ROW     9   COL    15   RATE    -2229.28      RIVX
 BOUNDARY     10   LAYER   1   ROW    10   COL    15   RATE    -3138.49    

 GHB LAKES          PERIOD  8   STEP 31
 BOUNDARY      1   LAYER   1   ROW     3   COL     1   RATE    -15242.4    
 BOUNDARY      2   LAYER   1   ROW     7   COL     1   RATE    -2432.60      GHB2_UPPER
 BOUNDARY      3   LAYER   1   ROW     7   COL     1   RATE    -13447.1      GHB2_LOWER
 UBDSV4 SAVING RECHARGE         ON UNIT   1016 AT TIME STEP     31, STRESS PERIOD      8

 RECHARGE           PERIOD  8   STEP 31
 BOUNDARY      1   LAYER   1   ROW     1   COL     1   RATE     250.000    
 BOUNDARY      2   LAYER   1   ROW     1   COL     2   RATE     250.000    
 BOUNDARY      3   LAYER   1   ROW     1   COL     3   RATE     250.000    
 BOUNDARY      4   LAYER   1   ROW     1   COL     4   RATE     250.000    
 BOUNDARY      5   LAYER   1   ROW     1   COL     5   RATE     250.000    
 BOUNDARY      6   LAYER   1   ROW     1   COL     6   RATE     250.000    
 BOUNDARY      7   LAYER   1   ROW     1   COL     7   RATE     250.000    
 BOUNDARY      8   LAYER   1   ROW     1   COL     8   RATE     250.000    
 BOUNDARY      9   LAYER   1   ROW     1   COL     9   RATE     250.000    
 BOUNDARY     10   LAYER   1   ROW     1   COL    10   RATE     250.000    
 BOUNDARY     11   LAYER   1   ROW     1   COL    11   RATE     250.000    
 BOUNDARY     12   LAYER   1   ROW     1   COL    12   RATE     250.000    
 BOUNDARY     13   LAYER   1   ROW     1   COL    13   RATE     250.000    
 BOUNDARY     14   LAYER   1   ROW     1   COL    14   RATE     250.000    
 BOUNDARY     15   LAYER   1   ROW     1   COL    15   RATE     250.000    
 BOUNDARY     16   LAYER   1   ROW     2   COL     1   RATE     250.000    
 BOUNDARY     17   LAYER   1   ROW     2   COL     2   RATE     250.000    
 BOUNDARY     18   LAYER   1   ROW     2   COL     3   RATE     250.000    
 BOUNDARY     19   LAYER   1   ROW     2   COL     4   RATE     250.000    
 BOUNDARY     20   LAYER   1   ROW     2   COL     5   RATE     250.000    
 BOUNDARY     21   LAYER   1   ROW     2   COL     6   RATE     250.000    
 BOUNDARY     22   LAYER   1   ROW     2   COL     7   RATE     250.000    
 BOUNDARY     23   LAYER   1   ROW     2   COL     8   RATE     250.000    
 BOUNDARY     24   LAYER   1   ROW     2   COL     9   RATE     250.000    
 BOUNDARY     25   LAYER   1   ROW     2   COL    10   RATE     250.000    
 BOUNDARY     26   LAYER   1   ROW     2   COL    11   RATE     250.000    
 BOUNDARY     27   LAYER   1   ROW     2   COL    12   RATE     250.000    
 BOUNDARY     28   LAYER   1   ROW     2   COL    13   RATE     250.000    
 BOUNDARY     29   LAYER   1   ROW     2   COL    14   RATE     250.000    
 BOUNDARY     30   LAYER   1   ROW     2   COL    15   RATE     250.000    
 BOUNDARY     31   LAYER   1   ROW     3   COL     1   RATE     250.000    
 BOUNDARY     32   LAYER   1   ROW     3   COL     2   RATE     250.000    
 BOUNDARY     33   LAYER   1   ROW     3   COL     3   RATE     250.000    
 BOUNDARY     34   LAYER   1   ROW     3   COL     4   RATE     250.000    
 BOUNDARY     35   LAYER   1   ROW     3   COL     5   RATE     250.000    
 BOUNDARY     36   LAYER   1   ROW     3   COL     6   RATE     250.000    
 BOUNDARY     37   LAYER   1   ROW     3   COL     7   RATE     250.000    
 BOUNDARY     38   LAYER   1   ROW     3   COL     8   RATE     250.000    
 BOUNDARY     39   LAYER   1   ROW     3   COL     9   RATE     250.000    
 BOUNDARY     40   LAYER   1   ROW     3   COL    10   RATE     250.000    
 BOUNDARY     41   LAYER   1   ROW     3   COL    11   RATE     250.000    
 BOUNDARY     42   LAYER   1   ROW     3   COL    12   RATE     250.000    
 BOUNDARY     43   LAYER   1   ROW     3   COL    13   RATE     250.000    
 BOUNDARY     44   LAYER   1   ROW     3   COL    14   RATE     250.000    
 BOUNDARY     45   LAYER   1   ROW     3   COL    15   RATE     250.000    
 BOUNDARY     46   LAYER   1   ROW     4   COL     1   RATE     250.000    
 BOUNDARY     47   LAYER   1   ROW     4   COL     2   RATE     250.000    
 BOUNDARY     48   LAYER   1   ROW     4   COL     3   RATE     250.000    
 BOUNDARY     49   LAYER   1   ROW     4   COL     4   RATE     250.000    
 BOUNDARY     50   LAYER   1   ROW     4   COL     5   RATE     250.000    
 BOUNDARY     51   LAYER   1   ROW     4   COL     6   RATE     250.000    
 BOUNDARY     52   LAYER   1   ROW     4   COL     7   RATE     250.000    
 BOUNDARY     53   LAYER   1   ROW     4   COL     8   RATE     250.000    
 BOUNDARY     54   LAYER   1   ROW     4   COL     9   RATE     250.000    
 BOUNDARY     55   LAYER   1   ROW     4   COL    10   RATE     250.000    
 BOUNDARY     56   LAYER   1   ROW     4   COL    11   RATE     250.000    
 BOUNDARY     57   LAYER   1   ROW     4   COL    12   RATE     250.000    
 BOUNDARY     58   LAYER   1   ROW     4   COL    13   RATE     250.000    
 BOUNDARY     59   LAYER   1   ROW     4   COL    14   RATE     250.000    
 BOUNDARY     60   LAYER   1   ROW     4   COL    15   RATE     250.000    
 BOUNDARY     61   LAYER   1   ROW     5   COL     1   RATE     250.000    
 BOUNDARY     62   LAYER   1   ROW     5   COL     2   RATE     250.000    
 BOUNDARY     63   LAYER   1   ROW     5   COL     3   RATE     250.000    
 BOUNDARY     64   LAYER   1   ROW     5   COL     4   RATE     250.000    
 BOUNDARY     65   LAYER   1   ROW     5   COL     5   RATE     250.000    
 BOUNDARY     66   LAYER   1   ROW     5   COL     6   RATE     250.000    
 BOUNDARY     67   LAYER   1   ROW     5   COL     7   RATE     250.000    
 BOUNDARY     68   LAYER   1   ROW     5   COL     8   RATE     250.000    
 BOUNDARY     69   LAYER   1   ROW     5   COL     9   RATE     250.000    
 BOUNDARY     70   LAYER   1   ROW     5   COL    10   RATE     250.000    
 BOUNDARY     71   LAYER   1   ROW     5   COL    11   RATE     250.000    
 BOUNDARY     72   LAYER   1   ROW     5   COL    12   RATE     250.000    
 BOUNDARY     73   LAYER   1   ROW     5   COL    13   RATE     250.000    
 BOUNDARY     74   LAYER   1   ROW     5   COL    14   RATE     250.000    
 BOUNDARY     75   LAYER   1   ROW     5   COL    15   RATE     250.000    
 BOUNDARY     76   LAYER   1   ROW     6   COL     1   RATE     250.000    
 BOUNDARY     77   LAYER   1   ROW     6   COL     2   RATE     250.000    
 BOUNDARY     78   LAYER   1   ROW     6   COL     3   RATE     250.000    
 BOUNDARY     79   LAYER   1   ROW     6   COL     4   RATE     250.000    
 BOUNDARY     80   LAYER   1   ROW     6   COL     5   RATE     250.000    
 BOUNDARY     81   LAYER   1   ROW     6   COL     6   RATE     250.000    
 BOUNDARY     82   LAYER   1   ROW     6   COL     7   RATE     250.000    
 BOUNDARY     83   LAYER   1   ROW     6   COL     8   RATE     250.000    
 BOUNDARY     84   LAYER   1   ROW     6   COL     9   RATE     250.000    
 BOUNDARY     85   LAYER   1   ROW     6   COL    10   RATE     250.000    
 BOUNDARY     86   LAYER   1   ROW     6   COL    11   RATE     250.000    
 BOUNDARY     87   LAYER   1   ROW     6   COL    12   RATE     250.000    
 BOUNDARY     88   LAYER   1   ROW     6   COL    13   RATE     250.000    
 BOUNDARY     89   LAYER   1   ROW     6   COL    14   RATE     250.000    
 BOUNDARY     90   LAYER   1   ROW     6   COL    15   RATE     250.000    
 BOUNDARY     91   LAYER   1   ROW     7   COL     1   RATE     250.000    
 BOUNDARY     92   LAYER   1   ROW     7   COL     2   RATE     250.000    
 BOUNDARY     93   LAYER   1   ROW     7   COL     3   RATE     250.000    
 BOUNDARY     94   LAYER   1   ROW     7   COL     4   RATE     250.000    
 BOUNDARY     95   LAYER   1   ROW     7   COL     5   RATE     250.000    
 BOUNDARY     96   LAYER   1   ROW     7   COL     6   RATE     250.000    
 BOUNDARY     97   LAYER   1   ROW     7   COL     7   RATE     250.000    
 BOUNDARY     98   LAYER   1   ROW     7   COL     8   RATE     250.000    
 BOUNDARY     99   LAYER   1   ROW     7   COL     9   RATE     250.000    
 BOUNDARY    100   LAYER   1   ROW     7   COL    10   RATE     250.000    
 BOUNDARY    101   LAYER   1   ROW     7   COL    11   RATE     250.000    
 BOUNDARY    102   LAYER   1   ROW     7   COL    12   RATE     250.000    
 BOUNDARY    103   LAYER   1   ROW     7   COL    13   RATE     250.000    
 BOUNDARY    104   LAYER   1   ROW     7   COL    14   RATE     250.000    
 BOUNDARY    105   LAYER   1   ROW     7   COL    15   RATE     250.000    
 BOUNDARY    106   LAYER   1   ROW     8   COL     1   RATE     250.000    
 BOUNDARY    107   LAYER   1   ROW     8   COL     2   RATE     250.000    
 BOUNDARY    108   LAYER   1   ROW     8   COL     3   RATE     250.000    
 BOUNDARY    109   LAYER   1   ROW     8   COL     4   RATE     250.000    
 BOUNDARY    110   LAYER   1   ROW     8   COL     5   RATE     250.000    
 BOUNDARY    111   LAYER   1   ROW     8   COL     6   RATE     250.000    
 BOUNDARY    112   LAYER   1   ROW     8   COL     7   RATE     250.000    
 BOUNDARY    113   LAYER   1   ROW     8   COL     8   RATE     250.000    
 BOUNDARY    114   LAYER   1   ROW     8   COL     9   RATE     250.000    
 BOUNDARY    115   LAYER   1   ROW     8   COL    10   RATE     250.000    
 BOUNDARY    116   LAYER   1   ROW     8   COL    11   RATE     250.000    
 BOUNDARY    117   LAYER   1   ROW     8   COL    12   RATE     250.000    
 BOUNDARY    118   LAYER   1   ROW     8   COL    13   RATE     250.000    
 BOUNDARY    119   LAYER   1   ROW     8   COL    14   RATE     250.000    
 BOUNDARY    120   LAYER   1   ROW     8   COL    15   RATE     250.000    
 BOUNDARY    121   LAYER   1   ROW     9   COL     1   RATE     250.000    
 BOUNDARY    122   LAYER   1   ROW     9   COL     2   RATE     250.000    
 BOUNDARY    123   LAYER   1   ROW     9   COL     3   RATE     250.000    
 BOUNDARY    124   LAYER   1   ROW     9   COL     4   RATE     250.000    
 BOUNDARY    125   LAYER   1   ROW     9   COL     5   RATE     250.000    
 BOUNDARY    126   LAYER   1   ROW     9   COL     6   RATE     250.000    
 BOUNDARY    127   LAYER   1   ROW     9   COL     7   RATE     250.000    
 BOUNDARY    128   LAYER   1   ROW     9   COL     8   RATE     250.000    
 BOUNDARY    129   LAYER   1   ROW     9   COL     9   RATE     250.000    
 BOUNDARY    130   LAYER   1   ROW     9   COL    10   RATE     250.000    
 BOUNDARY    131   LAYER   1   ROW     9   COL    11   RATE     250.000    
 BOUNDARY    132   LAYER   1   ROW     9   COL    12   RATE     250.000    
 BOUNDARY    133   LAYER   1   ROW     9   COL    13   RATE     250.000    
 BOUNDARY    134   LAYER   1   ROW     9   COL    14   RATE     250.000    
 BOUNDARY    135   LAYER   1   ROW     9   COL    15   RATE     250.000    
 BOUNDARY    136   LAYER   1   ROW    10   COL     1   RATE     250.000    
 BOUNDARY    137   LAYER   1   ROW    10   COL     2   RATE     250.000    
 BOUNDARY    138   LAYER   1   ROW    10   COL     3   RATE     250.000    
 BOUNDARY    139   LAYER   1   ROW    10   COL     4   RATE     250.000    
 BOUNDARY    140   LAYER   1   ROW    10   COL     5   RATE     250.000    
 BOUNDARY    141   LAYER   1   ROW    10   COL     6   RATE     250.000    
 BOUNDARY    142   LAYER   1   ROW    10   COL     7   RATE     250.000    
 BOUNDARY    143   LAYER   1   ROW    10   COL     8   RATE     250.000    
 BOUNDARY    144   LAYER   1   ROW    10   COL     9   RATE     250.000    
 BOUNDARY    145   LAYER   1   ROW    10   COL    10   RATE     250.000    
 BOUNDARY    146   LAYER   1   ROW    10   COL    11   RATE     250.000    
 BOUNDARY    147   LAYER   1   ROW    10   COL    12   RATE     250.000    
 BOUNDARY    148   LAYER   1   ROW    10   COL    13   RATE     250.000    
 BOUNDARY    149   LAYER   1   ROW    10   COL    14   RATE     250.000    
 BOUNDARY    150   LAYER   1   ROW    10   COL    15   RATE     250.000    
 UBDSV4 SAVING ET SEGS          ON UNIT   1016 AT TIME STEP     31, STRESS PERIOD      8

 ET SEGS            PERIOD  8   STEP 31
 BOUNDARY      1   LAYER   1   ROW     1   COL     1   RATE    -4.46023    
 BOUNDARY      2   LAYER   1   ROW     1   COL     2   RATE    -15.0536    
 BOUNDARY      3   LAYER   1   ROW     1   COL     3   RATE    -80.0347    
 BOUNDARY      4   LAYER   1   ROW     1   COL     4   RATE    -80.0347    
 BOUNDARY      5   LAYER   1   ROW     1   COL     5   RATE    -80.0347    
 BOUNDARY      6   LAYER   1   ROW     1   COL     6   RATE    -80.0347    
 BOUNDARY      7   LAYER   1   ROW     1   COL     7   RATE    -80.0347    
 BOUNDARY      8   LAYER   1   ROW     1   COL     8   RATE    -80.0347    
 BOUNDARY      9   LAYER   1   ROW     1   COL     9   RATE    -80.0347    
 BOUNDARY     10   LAYER   1   ROW     1   COL    10   RATE    -80.0347    
 BOUNDARY     11   LAYER   1   ROW     1   COL    11   RATE    -80.0347    
 BOUNDARY     12   LAYER   1   ROW     1   COL    12   RATE    -23.7242    
 BOUNDARY     13   LAYER   1   ROW     1   COL    13   RATE    -1.92763    
 BOUNDARY     14   LAYER   1   ROW     1   COL    14   RATE     0.00000    
 BOUNDARY     15   LAYER   1   ROW     1   COL    15   RATE     0.00000    
 BOUNDARY     16   LAYER   1   ROW     2   COL     1   RATE     0.00000    
 BOUNDARY     17   LAYER   1   ROW     2   COL     2   RATE    -6.30246    
 BOUNDARY     18   LAYER   1   ROW     2   COL     3   RATE    -69.2962    
 BOUNDARY     19   LAYER   1   ROW     2   COL     4   RATE    -80.0347    
 BOUNDARY     20   LAYER   1   ROW     2   COL     5   RATE    -80.0347    
 BOUNDARY     21   LAYER   1   ROW     2   COL     6   RATE    -80.0347    
 BOUNDARY     22   LAYER   1   ROW     2   COL     7   RATE    -80.0347    
 BOUNDARY     23   LAYER   1   ROW     2   COL     8   RATE    -80.0347    
 BOUNDARY     24   LAYER   1   ROW     2   COL     9   RATE    -80.0347    
 BOUNDARY     25   LAYER   1   ROW     2   COL    10   RATE    -80.0347    
 BOUNDARY     26   LAYER   1   ROW     2   COL    11   RATE    -80.0347    
 BOUNDARY     27   LAYER   1   ROW     2   COL    12   RATE    -29.4500    
 BOUNDARY     28   LAYER   1   ROW     2   COL    13   RATE    -2.69552    
 BOUNDARY     29   LAYER   1   ROW     2   COL    14   RATE     0.00000    
 BOUNDARY     30   LAYER   1   ROW     2   COL    15   RATE     0.00000    
 BOUNDARY     31   LAYER   1   ROW     3   COL     1   RATE     0.00000    
 BOUNDARY     32   LAYER   1   ROW     3   COL     2   RATE   -0.506957    
 BOUNDARY     33   LAYER   1   ROW     3   COL     3   RATE    -43.0616    
 BOUNDARY     34   LAYER   1   ROW     3   COL     4   RATE    -80.0347    
 BOUNDARY     35   LAYER   1   ROW     3   COL     5   RATE    -80.0347    
 BOUNDARY     36   LAYER   1   ROW     3   COL     6   RATE    -80.0347    
 BOUNDARY     37   LAYER   1   ROW     3   COL     7   RATE    -80.0347    
 BOUNDARY     38   LAYER   1   ROW     3   COL     8   RATE    -80.0347    
 BOUNDARY     39   LAYER   1   ROW     3   COL     9   RATE    -80.0347    
 BOUNDARY     40   LAYER   1   ROW     3   COL    10   RATE    -80.0347    
 BOUNDARY     41   LAYER   1   ROW     3   COL    11   RATE    -80.0347    
 BOUNDARY     42   LAYER   1   ROW     3   COL    12   RATE    -41.1504    
 BOUNDARY     43   LAYER   1   ROW     3   COL    13   RATE    -4.09280    
 BOUNDARY     44   LAYER   1   ROW     3   COL    14   RATE     0.00000    
 BOUNDARY     45   LAYER   1   ROW     3   COL    15   RATE     0.00000    
 BOUNDARY     46   LAYER   1   ROW     4   COL     1   RATE     0.00000    
 BOUNDARY     47   LAYER   1   ROW     4   COL     2   RATE    -5.01356    
 BOUNDARY     48   LAYER   1   ROW     4   COL     3   RATE    -59.9854    
 BOUNDARY     49   LAYER   1   ROW     4   COL     4   RATE    -80.0347    
 BOUNDARY     50   LAYER   1   ROW     4   COL     5   RATE    -80.0347    
 BOUNDARY     51   LAYER   1   ROW     4   COL     6   RATE    -80.0347    
 BOUNDARY     52   LAYER   1   ROW     4   COL     7   RATE    -80.0347    
 BOUNDARY     53   LAYER   1   ROW     4   COL     8   RATE    -80.0347    
 BOUNDARY     54   LAYER   1   ROW     4   COL     9   RATE    -80.0347    
 BOUNDARY     55   LAYER   1   ROW     4   COL    10   RATE    -80.0347    
 BOUNDARY     56   LAYER   1   ROW     4   COL    11   RATE    -80.0347    
 BOUNDARY     57   LAYER   1   ROW     4   COL    12   RATE    -52.2407    
 BOUNDARY     58   LAYER   1   ROW     4   COL    13   RATE    -5.21616    
 BOUNDARY     59   LAYER   1   ROW     4   COL    14   RATE     0.00000    
 BOUNDARY     60   LAYER   1   ROW     4   COL    15   RATE     0.00000    
 BOUNDARY     61   LAYER   1   ROW     5   COL     1   RATE     0.00000    
 BOUNDARY     62   LAYER   1   ROW     5   COL     2   RATE    -7.49704    
 BOUNDARY     63   LAYER   1   ROW     5   COL     3   RATE    -77.3244    
 BOUNDARY     64   LAYER   1   ROW     5   COL     4   RATE    -80.0347    
 BOUNDARY     65   LAYER   1   ROW     5   COL     5   RATE    -80.0347    
 BOUNDARY     66   LAYER   1   ROW     5   COL     6   RATE    -80.0347    
 BOUNDARY     67   LAYER   1   ROW     5   COL     7   RATE    -80.0347    
 BOUNDARY     68   LAYER   1   ROW     5   COL     8   RATE    -80.0347    
 BOUNDARY     69   LAYER   1   ROW     5   COL     9   RATE    -80.0347    
 BOUNDARY     70   LAYER   1   ROW     5   COL    10   RATE    -80.0347    
 BOUNDARY     71   LAYER   1   ROW     5   COL    11   RATE    -80.0347    
 BOUNDARY     72   LAYER   1   ROW     5   COL    12   RATE    -59.9234    
 BOUNDARY     73   LAYER   1   ROW     5   COL    13   RATE    -5.89584    
 BOUNDARY     74   LAYER   1   ROW     5   COL    14   RATE     0.00000    
 BOUNDARY     75   LAYER   1   ROW     5   COL    15   RATE     0.00000    
 BOUNDARY     76   LAYER   1   ROW     6   COL     1   RATE     0.00000    
 BOUNDARY     77   LAYER   1   ROW     6   COL     2   RATE    -6.23156    
 BOUNDARY     78   LAYER   1   ROW     6   COL     3   RATE    -80.0347    
 BOUNDARY     79   LAYER   1   ROW     6   COL     4   RATE    -80.0347    
 BOUNDARY     80   LAYER   1   ROW     6   COL     5   RATE    -80.0347    
 BOUNDARY     81   LAYER   1   ROW     6   COL     6   RATE    -80.0347    
 BOUNDARY     82   LAYER   1   ROW     6   COL     7   RATE    -80.0347    
 BOUNDARY     83   LAYER   1   ROW     6   COL     8   RATE    -80.0347    
 BOUNDARY     84   LAYER   1   ROW     6   COL     9   RATE    -80.0347    
 BOUNDARY     85   LAYER   1   ROW     6   COL    10   RATE    -80.0347    
 BOUNDARY     86   LAYER   1   ROW     6   COL    11   RATE    -80.0347    
 BOUNDARY     87   LAYER   1   ROW     6   COL    12   RATE    -62.7140    
 BOUNDARY     88   LAYER   1   ROW     6   COL    13   RATE    -5.85863    
 BOUNDARY     89   LAYER   1   ROW     6   COL    14   RATE     0.00000    
 BOUNDARY     90   LAYER   1   ROW     6   COL    15   RATE     0.00000    
 BOUNDARY     91   LAYER   1   ROW     7   COL     1   RATE     0.00000    
 BOUNDARY     92   LAYER   1   ROW     7   COL     2   RATE    -3.22486    
 BOUNDARY     93   LAYER   1   ROW     7   COL     3   RATE    -80.0347    
 BOUNDARY     94   LAYER   1   ROW     7   COL     4   RATE    -80.0347    
 BOUNDARY     95   LAYER   1   ROW     7   COL     5   RATE    -80.0347    
 BOUNDARY     96   LAYER   1   ROW     7   COL     6   RATE    -80.0347    
 BOUNDARY     97   LAYER   1   ROW     7   COL     7   RATE    -80.0347    
 BOUNDARY     98   LAYER   1   ROW     7   COL     8   RATE    -80.0347    
 BOUNDARY     99   LAYER   1   ROW     7   COL     9   RATE    -80.0347    
 BOUNDARY    100   LAYER   1   ROW     7   COL    10   RATE    -80.0347    
 BOUNDARY    101   LAYER   1   ROW     7   COL    11   RATE    -80.0347    
 BOUNDARY    102   LAYER   1   ROW     7   COL    12   RATE    -62.5877    
 BOUNDARY    103   LAYER   1   ROW     7   COL    13   RATE    -5.31790    
 BOUNDARY    104   LAYER   1   ROW     7   COL    14   RATE     0.00000    
 BOUNDARY    105   LAYER   1   ROW     7   COL    15   RATE     0.00000    
 BOUNDARY    106   LAYER   1   ROW     8   COL     1   RATE   -0.954748    
 BOUNDARY    107   LAYER   1   ROW     8   COL     2   RATE    -18.3369    
 BOUNDARY    108   LAYER   1   ROW     8   COL     3   RATE    -80.0347    
 BOUNDARY    109   LAYER   1   ROW     8   COL     4   RATE    -80.0347    
 BOUNDARY    110   LAYER   1   ROW     8   COL     5   RATE    -80.0347    
 BOUNDARY    111   LAYER   1   ROW     8   COL     6   RATE    -80.0347    
 BOUNDARY    112   LAYER   1   ROW     8   COL     7   RATE    -80.0347    
 BOUNDARY    113   LAYER   1   ROW     8   COL     8   RATE    -80.0347    
 BOUNDARY    114   LAYER   1   ROW     8   COL     9   RATE    -80.0347    
 BOUNDARY    115   LAYER   1   ROW     8   COL    10   RATE    -80.0347    
 BOUNDARY    116   LAYER   1   ROW     8   COL    11   RATE    -80.0347    
 BOUNDARY    117   LAYER   1   ROW     8   COL    12   RATE    -64.9050    
 BOUNDARY    118   LAYER   1   ROW     8   COL    13   RATE    -5.37877    
 BOUNDARY    119   LAYER   1   ROW     8   COL    14   RATE     0.00000    
 BOUNDARY    120   LAYER   1   ROW     8   COL    15   RATE     0.00000    
 BOUNDARY    121   LAYER   1   ROW     9   COL     1   RATE    -26.9434    
 BOUNDARY    122   LAYER   1   ROW     9   COL     2   RATE    -80.0347    
 BOUNDARY    123   LAYER   1   ROW     9   COL     3   RATE    -80.0347    
 BOUNDARY    124   LAYER   1   ROW     9   COL     4   RATE    -80.0347    
 BOUNDARY    125   LAYER   1   ROW     9   COL     5   RATE    -80.0347    
 BOUNDARY    126   LAYER   1   ROW     9   COL     6   RATE    -80.0347    
 BOUNDARY    127   LAYER   1   ROW     9   COL     7   RATE    -80.0347    
 BOUNDARY    128   LAYER   1   ROW     9   COL     8   RATE    -80.0347    
 BOUNDARY    129   LAYER   1   ROW     9   COL     9   RATE    -80.0347    
 BOUNDARY    130   LAYER   1   ROW     9   COL    10   RATE    -80.0347    
 BOUNDARY    131   LAYER   1   ROW     9   COL    11   RATE    -80.0347    
 BOUNDARY    132   LAYER   1   ROW     9   COL    12   RATE    -70.1001    
 BOUNDARY    133   LAYER   1   ROW     9   COL    13   RATE    -6.08942    
 BOUNDARY    134   LAYER   1   ROW     9   COL    14   RATE     0.00000    
 BOUNDARY    135   LAYER   1   ROW     9   COL    15   RATE     0.00000    
 BOUNDARY    136   LAYER   1   ROW    10   COL     1   RATE    -80.0347    
 BOUNDARY    137   LAYER   1   ROW    10   COL     2   RATE    -80.0347    
 BOUNDARY    138   LAYER   1   ROW    10   COL     3   RATE    -80.0347    
 BOUNDARY    139   LAYER   1   ROW    10   COL     4   RATE    -80.0347    
 BOUNDARY    140   LAYER   1   ROW    10   COL     5   RATE    -80.0347    
 BOUNDARY    141   LAYER   1   ROW    10   COL     6   RATE    -80.0347    
 BOUNDARY    142   LAYER   1   ROW    10   COL     7   RATE    -80.0347    
 BOUNDARY    143   LAYER   1   ROW    10   COL     8   RATE    -80.0347    
 BOUNDARY    144   LAYER   1   ROW    10   COL     9   RATE    -80.0347    
 BOUNDARY    145   LAYER   1   ROW    10   COL    10   RATE    -80.0347    
 BOUNDARY    146   LAYER   1   ROW    10   COL    11   RATE    -80.0347    
 BOUNDARY    147   LAYER   1   ROW    10   COL    12   RATE    -73.7746    
 BOUNDARY    148   LAYER   1   ROW    10   COL    13   RATE    -6.54258    
 BOUNDARY    149   LAYER   1   ROW    10   COL    14   RATE     0.00000    
 BOUNDARY    150   LAYER   1   ROW    10   COL    15   RATE     0.00000    
1
  HEAD             IN LAYER   1 AT END OF TIME STEP  31 IN STRESS PERIOD    8
  ---------------------------------------------------------------------------

           1          2          3          4          5          6          7          8
 ........................................................................................
   1   132.78643  136.32132  140.47455  144.12020  146.87316  148.65725  149.47231  149.32235
   2   127.20018  133.93733  139.61665  143.83623  146.80072  148.66374  149.50852  149.37539
   3   110.14130  130.31671  138.68010  143.59015  146.77626  148.71624  149.58337  149.47234
   4   125.85806  133.13212  139.28426  143.79852  146.92464  148.84595  149.68216  149.58587
   5   129.80116  134.68362  139.90324  144.14964  147.18550  149.03439  149.78393  149.68895
   6   126.54522  133.89303  140.01433  144.47519  147.50125  149.24969  149.87790  149.77431
   7   111.73385  132.01466  140.23093  144.96490  147.89992  149.46697  149.95312  149.84533
   8   130.59646  136.93668  142.15704  145.93771  148.42428  149.67737  149.99788  149.90150
   9   138.10470  140.81096  144.07345  146.92184  148.92035  149.85169  150.05683  149.94176
  10   141.03650  142.72925  145.15534  147.50667  149.21293  149.94250  150.09958  149.96094
1
  HEAD             IN LAYER   1 AT END OF TIME STEP  31 IN STRESS PERIOD    8
  ---------------------------------------------------------------------------

           9         10         11         12         13         14         15
 .............................................................................
   1   148.18871  146.01462  142.67867  137.94636  131.20425  121.34752  105.83025
   2   148.25774  146.10789  142.82179  138.19419  131.68397  122.23605  106.94925
   3   148.38357  146.27232  143.06407  138.61188  132.55689  124.35256  113.72130
   4   148.53986  146.46872  143.32473  139.00779  133.25868  125.57605  115.17555
   5   148.70020  146.66190  143.54435  139.28205  133.68330  126.39141  117.41391
   6   148.85222  146.83339  143.69637  139.38167  133.66006  126.07156  116.76268
   7   148.99172  146.98330  143.80381  139.37716  133.32225  124.53531  110.11622
   8   149.11166  147.11785  143.91922  139.45989  133.36027  124.48830  109.96604
   9   149.19840  147.22644  144.04283  139.64535  133.80423  125.91188  115.70940
  10   149.24267  147.28745  144.12236  139.77652  134.08734  126.52924  116.60742
1
  HEAD             IN LAYER   2 AT END OF TIME STEP  31 IN STRESS PERIOD    8
  ---------------------------------------------------------------------------

           1          2          3          4          5          6          7          8
 ........................................................................................
   1   133.78601  136.13469  139.40902  142.58759  145.14722  146.86321  147.64786  147.46276
   2   131.90772  135.08665  138.94376  142.41302  145.10155  146.87182  147.67994  147.50968
   3   129.17601  133.90655  138.50187  142.28033  145.09810  146.92073  147.75048  147.59834
   4   131.20503  134.62871  138.75982  142.42610  145.22402  147.03851  147.86062  147.71641
   5   132.45564  135.36316  139.19220  142.72639  145.45589  147.21835  148.00060  147.84836
   6   132.09707  135.48696  139.53549  143.09168  145.76220  147.44341  148.15831  147.98235
   7   131.09687  135.72076  140.10326  143.62240  146.15982  147.70459  148.32310  148.11061
   8   135.12936  138.02171  141.44229  144.43471  146.65117  147.98440  148.48141  148.22491
   9   138.50918  140.30924  142.82357  145.24214  147.11023  148.22883  148.61432  148.31397
  10   140.26356  141.60357  143.64692  145.73058  147.38486  148.37108  148.69107  148.36314
1
  HEAD             IN LAYER   2 AT END OF TIME STEP  31 IN STRESS PERIOD    8
  ---------------------------------------------------------------------------

           9         10         11         12         13         14         15
 .............................................................................
   1   146.27549  144.04207  140.70548  136.21569  130.60210  124.26663  118.72604
   2   146.33917  144.13233  140.84441  136.44550  130.99399  124.90436  119.61100
   3   146.45387  144.28917  141.07792  136.82490  131.65009  126.05302  121.51114
   4   146.59762  144.47407  141.33230  137.20393  132.24613  126.96988  122.74207
   5   146.74827  144.65256  141.54906  137.48174  132.62543  127.50837  123.50620
   6   146.89146  144.80639  141.70373  137.61953  132.70762  127.46363  123.29212
   7   147.02093  144.93591  141.81498  137.67499  132.61674  127.01560  122.14901
   8   147.13240  145.04855  141.92184  137.76852  132.68698  127.04626  122.13339
   9   147.21719  145.13962  142.02719  137.91530  132.95072  127.60113  123.26627
  10   147.26351  145.19192  142.09443  138.02033  133.14367  127.95906  123.82049

 HEAD WILL BE SAVED ON UNIT 1017 AT END OF TIME STEP   31, STRESS PERIOD    8

 IBOUND WILL BE SAVED ON UNIT 1018 AT END OF TIME STEP   31, STRESS PERIOD    8
1
  VOLUME BUDGET FOR ENTIRE MODEL AT END OF TIME STEP   31, STRESS PERIOD   8
  ------------------------------------------------------------------------------

     CUMULATIVE VOLUME      L**3       RATES FOR THIS TIME STEP      L**3/T
     ------------------                 ------------------------

           IN:                                      IN:
           ---                                      ---
             STORAGE =     1777548.4596               STORAGE =       39932.1215
    WELLS NEAR RIVER =           0.0000      WELLS NEAR RIVER =           0.0000
               RIVER =           0.0000                 RIVER =           0.0000
           GHB LAKES =           0.0000             GHB LAKES =           0.0000
            RECHARGE =    36874739.5833              RECHARGE =       37500.0000
             ET SEGS =           0.0000               ET SEGS =           0.0000

            TOTAL IN =    38652288.0429              TOTAL IN =       77432.1215

          OUT:                                     OUT:
          ----                                     ----
             STORAGE =     8754966.7455               STORAGE =           0.0000
    WELLS NEAR RIVER =        5570.0000      WELLS NEAR RIVER =           0.0000
               RIVER =    14733380.1623                 RIVER =       38253.1530
           GHB LAKES =    11372587.7565             GHB LAKES =       31122.0999
            RECHARGE =           0.0000              RECHARGE =           0.0000
             ET SEGS =     3785783.3915               ET SEGS =        8056.8686

           TOTAL OUT =    38652288.0558             TOTAL OUT =       77432.1215

            IN - OUT =      -1.2892E-02              IN - OUT =       1.3772E-05

 PERCENT DISCREPANCY =          -0.00     PERCENT DISCREPANCY =           0.00






         TIME SUMMARY AT END OF TIME STEP   31 IN STRESS PERIOD    8
                    SECONDS     MINUTES      HOURS       DAYS        YEARS
                    -----------------------------------------------------------
   TIME STEP LENGTH  86400.      1440.0      24.000     1.00000     2.73785E-03
 STRESS PERIOD TIME 2.67840E+06  44640.      744.00      31.000     8.48734E-02
         TOTAL TIME 3.16224E+07 5.27040E+05  8784.0      366.00      1.0021    
