                                  MODFLOW-2015
             U.S. GEOLOGICAL SURVEY MODULAR FINITE-DIFFERENCE MODEL
                          GROUNDWATER FLOW MODEL (GWF)
                             VERSION GWF 03/31/2015

 OPENED bcftr15.dis
 FILE TYPE:DIS8                   UNIT 1005   STATUS:OLD                 
 FORMAT:FORMATTED              ACCESS:SEQUENTIAL          
 ACTION:READ                


 OPENED bcftr15.ic
 FILE TYPE:IC8                    UNIT 1006   STATUS:OLD                 
 FORMAT:FORMATTED              ACCESS:SEQUENTIAL          
 ACTION:READ                


 OPENED bcftr15.npf
 FILE TYPE:NPF8                   UNIT 1007   STATUS:OLD                 
 FORMAT:FORMATTED              ACCESS:SEQUENTIAL          
 ACTION:READ                


 OPENED bcftr15.sto
 FILE TYPE:STO8                   UNIT 1008   STATUS:OLD                 
 FORMAT:FORMATTED              ACCESS:SEQUENTIAL          
 ACTION:READ                


 OPENED bcftr15_constant.chd
 FILE TYPE:CHD8                   UNIT 1009   STATUS:OLD                 
 FORMAT:FORMATTED              ACCESS:SEQUENTIAL          
 ACTION:READ                


 OPENED bcftr15.oc
 FILE TYPE:OC8                    UNIT 1010   STATUS:OLD                 
 FORMAT:FORMATTED              ACCESS:SEQUENTIAL          
 ACTION:READ                


 OPENED bcftr15.wel
 FILE TYPE:WEL8                   UNIT 1011   STATUS:OLD                 
 FORMAT:FORMATTED              ACCESS:SEQUENTIAL          
 ACTION:READ                


 OPENED bcftr15.riv
 FILE TYPE:RIV8                   UNIT 1012   STATUS:OLD                 
 FORMAT:FORMATTED              ACCESS:SEQUENTIAL          
 ACTION:READ                


 OPENED bcftr15.rch
 FILE TYPE:RCH8                   UNIT 1013   STATUS:OLD                 
 FORMAT:FORMATTED              ACCESS:SEQUENTIAL          
 ACTION:READ                


 OPENED bcftr15_bcftr.cbc
 FILE TYPE:DATA(BINARY)           UNIT 1014   STATUS:REPLACE             
 FORMAT:UNFORMATTED            ACCESS:STREAM              
 ACTION:READWRITE           


 OPENED bcftr15_bcftr.hds
 FILE TYPE:DATA(BINARY)           UNIT 1015   STATUS:REPLACE             
 FORMAT:UNFORMATTED            ACCESS:STREAM              
 ACTION:READWRITE           


 DIS -- STRUCTURED GRID DISCRETIZATION PACKAGE, VERSION 2 : 3/27/2014 - INPUT READ FROM UNIT 1005


 # DIS8 input file, prepared by mf5to15 on 4/17/2015 at 17:29:21.
 PROCESSING DISCRETIZATION OPTIONS
    MODEL LENGTH UNIT IS FEET
 END OF DISCRETIZATION OPTIONS
 PROCESSING DISCRETIZATION DIMENSIONS
    NLAY =       5
    NROW =      10
    NCOL =      15
 END OF DISCRETIZATION DIMENSIONS
 PROCESSING DISDATA

                     DELR =   500.000    

                     DELC =   500.000    

 TOP ELEVATION OF LAYER 1 =   152.000    

   MODEL LAYER BOTTOM EL. =   100.000     FOR LAYER   1

   MODEL LAYER BOTTOM EL. =   51.0000     FOR LAYER   2

   MODEL LAYER BOTTOM EL. =   0.00000     FOR LAYER   3

   MODEL LAYER BOTTOM EL. =  -10.0000     FOR LAYER   4



             MODEL LAYER BOTTOM EL. FOR LAYER   5
 READING ON UNIT 1005 WITH FORMAT: (FREE)              
 END PROCESSING DISDATA

 WEL   -- WELLS PACKAGE, VERSION 8, 2/22/2014 INPUT READ FROM UNIT 1011
 # WEL8 input file, prepared by mf5to15 on 4/17/2015 at 17:29:21.

 PROCESSING WELLS OPTIONS
    FLOWS WILL BE SAVED TO BUDGET FILE SPECIFIED IN OUTPUT CONTROL
 END OF WELLS OPTIONS

 PROCESSING WELLS DIMENSIONS
    MAXBOUND =       2
 END OF WELLS DIMENSIONS

 RIV   -- RIVER LEAKAGE PACKAGE, VERSION 8, 2/22/2014 INPUT READ FROM UNIT 1012
 # RIV8 input file, prepared by mf5to15 on 4/17/2015 at 17:29:21.

 PROCESSING RIVER LEAKAGE OPTIONS
    FLOWS WILL BE SAVED TO BUDGET FILE SPECIFIED IN OUTPUT CONTROL
 END OF RIVER LEAKAGE OPTIONS

 PROCESSING RIVER LEAKAGE DIMENSIONS
    MAXBOUND =      10
 END OF RIVER LEAKAGE DIMENSIONS

 RCH   -- RECHARGE PACKAGE, VERSION 8, 2/22/2014 INPUT READ FROM UNIT 1013
 # RCH8 input file, prepared by mf5to15 on 4/17/2015 at 17:29:21.

 PROCESSING RECHARGE OPTIONS
    FLOWS WILL BE SAVED TO BUDGET FILE SPECIFIED IN OUTPUT CONTROL
    RECHARGE WILL BE APPLIED TO HIGHEST ACTIVE CELL.
 END OF RECHARGE OPTIONS

 PROCESSING RECHARGE DIMENSIONS
    MAXBOUND =     150
 END OF RECHARGE DIMENSIONS

 CHD   -- CONSTANT HEAD PACKAGE, VERSION 8, 2/22/2014 INPUT READ FROM UNIT 1009
 # CHD8 input file, prepared by mf5to15 on 4/17/2015 at 17:29:21.

 PROCESSING CONSTANT HEAD OPTIONS
    CONSTANT HEAD FLOWS WILL BE PRINTED TO LISTING FILE.
 END OF CONSTANT HEAD OPTIONS

 PROCESSING CONSTANT HEAD DIMENSIONS
    MAXBOUND =       5
 END OF CONSTANT HEAD DIMENSIONS

 IC -- INITIAL CONDITIONS PACKAGE, VERSION 8, 3/28/2015 INPUT READ FROM UNIT 1006
 # IC8 input file, prepared by mf5to15 on 4/17/2015 at 17:29:21.
 PROCESSING IC OPTIONS
 END OF IC OPTIONS
 PROCESSING ICDATA

             INITIAL HEAD =   140.000     FOR LAYER   1

             INITIAL HEAD =   140.000     FOR LAYER   2

             INITIAL HEAD =   140.000     FOR LAYER   3

             INITIAL HEAD =   140.000     FOR LAYER   4

             INITIAL HEAD =   140.000     FOR LAYER   5
 END PROCESSING ICDATA

 NPF -- NODE PROPERTY FLOW PACKAGE, VERSION 1, 3/30/2015 INPUT READ FROM UNIT 1007


 # NPF8 input file, prepared by mf5to15 on 4/17/2015 at 17:29:21.
 PROCESSING NPF OPTIONS
    VERTICAL FLOW WILL BE ADJUSTED FOR PERCHED CONDITIONS.
    CELL-BY-CELL FLOW INFORMATION WILL BE SAVED TO BINARY FILE WHENEVER ICBCFL IS NOT ZERO.
    THE VALUE FOR HNOFLO HAS BEEN SET TO:     888.880    
    THE VALUE FOR HDRY HAS BEEN SET TO:     777.770    
    CELL AVERAGING METHOD HAS BEEN SET TO: HARMONIC
    REWETTING IS ACTIVE.
    WETTING FACTOR HAS BEEN SET TO:     1.00000    
 END OF NPF OPTIONS
 PROCESSING NPFDATA

                ICELLTYPE =              1 FOR LAYER   1

                ICELLTYPE =              0 FOR LAYER   2

                ICELLTYPE =              1 FOR LAYER   3

                ICELLTYPE =              0 FOR LAYER   4

                ICELLTYPE =              0 FOR LAYER   5

                       HK =   10.0000     FOR LAYER   1

                       HK =  2.830000E-08 FOR LAYER   2

                       HK =   5.00000     FOR LAYER   3

                       HK =  2.830000E-08 FOR LAYER   4



                                 HK FOR LAYER   5
 READING ON UNIT 1007 WITH FORMAT: (FREE)              

                       VK =  0.100500     FOR LAYER   1

                       VK =  0.100500     FOR LAYER   2

                       VK =  0.100500     FOR LAYER   3



                                 VK FOR LAYER   4
 READING ON UNIT 1007 WITH FORMAT: (FREE)              



                                 VK FOR LAYER   5
 READING ON UNIT 1007 WITH FORMAT: (FREE)              



                             WETDRY FOR LAYER   1
 READING ON UNIT 1007 WITH FORMAT: (FREE)              

                   WETDRY =   0.00000     FOR LAYER   2

                   WETDRY =   2.00000     FOR LAYER   3

                   WETDRY =   0.00000     FOR LAYER   4

                   WETDRY =   0.00000     FOR LAYER   5
 END PROCESSING NPFDATA

 STO -- STORAGE PACKAGE, VERSION 1, 5/19/2014 INPUT READ FROM UNIT 1008


 # STO8 input file, prepared by mf5to15 on 4/20/2015 at 12:57:13.
 PROCESSING STORAGE OPTIONS
    STORAGECOEFFICIENT OPTION:
 Read storage coefficient rather than specific storage
 END OF STORAGE OPTIONS
 PROCESSING STODATA

                 ICONVERT =              0 FOR LAYER   1

                 ICONVERT =              0 FOR LAYER   2

                 ICONVERT =              1 FOR LAYER   3

                 ICONVERT =              0 FOR LAYER   4

                 ICONVERT =              0 FOR LAYER   5

         SPECIFIC STORAGE =   0.00000     FOR LAYER   1

         SPECIFIC STORAGE =   0.00000     FOR LAYER   2

         SPECIFIC STORAGE =  5.000000E-05 FOR LAYER   3

         SPECIFIC STORAGE =   0.00000     FOR LAYER   4

         SPECIFIC STORAGE =  4.000000E-05 FOR LAYER   5

           SPECIFIC YIELD =  0.300000     FOR LAYER   1

           SPECIFIC YIELD =   0.00000     FOR LAYER   2

           SPECIFIC YIELD =  0.250000     FOR LAYER   3

           SPECIFIC YIELD =   0.00000     FOR LAYER   4

           SPECIFIC YIELD =   0.00000     FOR LAYER   5
 END PROCESSING STODATA
 # OC8 input file, prepared by mf5to15 on 4/17/2015 at 17:29:21.

PROCESSING OUTPUT CONTROL OPTIONS
 END OF OUTPUT CONTROL OPTIONS

 BEGIN READING OUTPUT CONTROL FOR STRESS PERIOD 1

    HEAD PRINT AND SAVE TIMES DETECTED:
      ALL TIME STEPS WILL BE PRINTED

    BUDGET PRINT AND SAVE TIMES DETECTED:
      ALL TIME STEPS WILL BE PRINTED

 END READING OUTPUT CONTROL FOR STRESS PERIOD 1


 UPDATING STORAGE VALUES
 END UPDATING STORAGE VALUES


 STRESS PERIOD     1 IS     STEADY-STATE


 REUSING WELS FROM LAST STRESS PERIOD

      LAYER OR NODE INDEX =              1

                 RECHARGE =  4.000000E-03
1
  HEAD IN LAYER   1 AT END OF TIME STEP   1 IN STRESS PERIOD    1
  ---------------------------------------------------------------------------

           1       2       3       4       5       6       7       8       9      10      11      12      13      14      15
 ...........................................................................................................................
   1  130.879 144.755 152.220 157.514 161.655 164.864 167.253 168.891 169.834 170.145 169.913 169.270 168.402 167.563 167.035
   2  130.879 144.747 152.206 157.492 161.622 164.814 167.178 168.776 169.656 169.868 169.485 168.619 167.453 166.277 165.498
   3  130.878 144.732 152.180 157.451 161.561 164.723 167.041 168.567 169.331 169.357 168.677 167.348 165.507 163.487 161.990
   4  130.877 144.712 152.146 157.399 161.482 164.607 166.867 168.302 168.920 168.702 167.607 165.564 162.528 158.698 155.267
   5  130.876 144.690 152.108 157.341 161.398 164.484 166.687 168.034 168.508 168.044 166.496 163.569 158.721 151.124 140.000
   6  130.874 144.669 152.071 157.285 161.318 164.372 166.530 167.812 168.185 167.552 165.681 162.034 155.289 140.000 140.000
   7  130.873 144.649 152.038 157.237 161.252 164.284 166.416 167.668 168.011 167.356 165.489 161.906 155.309 140.000 140.000
   8  130.872 144.634 152.013 157.201 161.204 164.224 166.348 167.602 167.978 167.432 165.871 163.126 158.995 153.784 152.137
   9  130.872 144.623 151.996 157.177 161.174 164.190 166.316 167.588 168.020 167.614 166.378 164.357 161.730 159.076 157.777
  10  130.871 144.618 151.987 157.165 161.159 164.175 166.304 167.592 168.063 167.746 166.700 165.051 163.064 161.231 160.213
1
  HEAD IN LAYER   2 AT END OF TIME STEP   1 IN STRESS PERIOD    1
  ---------------------------------------------------------------------------

           1       2       3       4       5       6       7       8       9      10      11      12      13      14      15
 ...........................................................................................................................
   1  136.352 145.726 151.910 156.731 160.654 163.762 166.108 167.729 168.669 168.991 168.782 168.174 167.356 166.570 166.081
   2  136.348 145.717 151.896 156.709 160.621 163.713 166.033 167.616 168.496 168.725 168.377 167.570 166.494 165.427 164.733
   3  136.342 145.700 151.869 156.669 160.560 163.623 165.898 167.410 168.181 168.237 167.619 166.408 164.764 163.019 161.776
   4  136.334 145.679 151.834 156.616 160.482 163.507 165.726 167.151 167.784 167.615 166.629 164.814 162.214 159.113 156.520
   5  136.324 145.654 151.795 156.557 160.397 163.385 165.548 166.888 167.386 166.993 165.616 163.085 159.127 153.463 146.366
   6  136.315 145.630 151.757 156.501 160.317 163.274 165.393 166.669 167.072 166.526 164.878 161.790 156.516 146.369 145.439
   7  136.306 145.608 151.723 156.453 160.251 163.186 165.278 166.525 166.897 166.327 164.676 161.635 156.485 146.420 145.630
   8  136.299 145.591 151.696 156.416 160.203 163.125 165.209 166.456 166.854 166.374 164.965 162.554 159.106 155.046 153.542
   9  136.294 145.579 151.678 156.392 160.172 163.090 165.175 166.438 166.885 166.524 165.383 163.542 161.213 158.929 157.759
  10  136.292 145.573 151.669 156.380 160.158 163.075 165.163 166.439 166.920 166.637 165.656 164.118 162.289 160.622 159.685
1
  HEAD IN LAYER   3 AT END OF TIME STEP   1 IN STRESS PERIOD    1
  ---------------------------------------------------------------------------

           1       2       3       4       5       6       7       8       9      10      11      12      13      14      15
 ...........................................................................................................................
   1  141.770 146.687 151.603 155.957 159.662 162.672 164.973 166.578 167.517 167.848 167.661 167.090 166.320 165.588 165.136
   2  141.763 146.677 151.588 155.935 159.629 162.623 164.900 166.467 167.349 167.593 167.279 166.533 165.544 164.584 163.975
   3  141.752 146.659 151.561 155.894 159.569 162.533 164.766 166.265 167.043 167.127 166.572 165.477 164.029 162.556 161.565
   4  141.736 146.635 151.525 155.840 159.491 162.419 164.597 166.012 166.658 166.538 165.661 164.071 161.903 159.523 157.761
   5  141.719 146.608 151.485 155.782 159.406 162.297 164.421 165.754 166.274 165.952 164.746 162.606 159.529 155.778 152.669
   6  141.701 146.582 151.445 155.725 159.326 162.186 164.266 165.538 165.969 165.511 164.082 161.549 157.731 152.675 150.824
   7  141.685 146.558 151.410 155.677 159.260 162.098 164.152 165.394 165.793 165.308 163.870 161.368 157.650 152.776 151.205
   8  141.672 146.538 151.383 155.639 159.211 162.037 164.081 165.322 165.741 165.326 164.068 161.988 159.217 156.295 154.932
   9  141.663 146.525 151.364 155.615 159.180 162.002 164.046 165.300 165.760 165.444 164.398 162.735 160.700 158.783 157.741
  10  141.658 146.518 151.355 155.602 159.166 161.986 164.033 165.298 165.789 165.539 164.623 163.194 161.521 160.019 159.162
1
  HEAD IN LAYER   4 AT END OF TIME STEP   1 IN STRESS PERIOD    1
  ---------------------------------------------------------------------------

           1       2       3       4       5       6       7       8       9      10      11      12      13      14      15
 ...........................................................................................................................
   1  143.503 147.260 151.595 155.699 159.294 162.254 164.533 166.129 167.067 167.404 167.228 166.674 165.929 165.221 164.790
   2  143.496 147.250 151.580 155.677 159.261 162.205 164.460 166.019 166.902 167.154 166.858 166.140 165.195 164.287 163.719
   3  143.483 147.231 151.552 155.636 159.201 162.116 164.327 165.820 166.600 166.699 166.175 165.137 163.784 162.440 161.560
   4  143.465 147.206 151.516 155.583 159.122 162.001 164.159 165.569 166.223 166.126 165.302 163.822 161.858 159.795 158.353
   5  143.445 147.178 151.475 155.524 159.038 161.880 163.983 165.313 165.845 165.558 164.435 162.481 159.796 156.764 154.491
   6  143.424 147.150 151.435 155.467 158.958 161.769 163.830 165.099 165.545 165.129 163.806 161.529 158.308 154.485 152.789
   7  143.406 147.125 151.400 155.418 158.892 161.681 163.715 164.955 165.368 164.925 163.590 161.334 158.193 154.520 153.030
   8  143.391 147.105 151.372 155.381 158.843 161.620 163.644 164.881 165.312 164.929 163.745 161.821 159.353 156.877 155.623
   9  143.381 147.091 151.353 155.356 158.812 161.584 163.609 164.857 165.325 165.031 164.032 162.456 160.561 158.810 157.834
  10  143.375 147.084 151.343 155.344 158.797 161.568 163.595 164.854 165.350 165.116 164.233 162.858 161.261 159.838 159.022
1
  HEAD IN LAYER   5 AT END OF TIME STEP   1 IN STRESS PERIOD    1
  ---------------------------------------------------------------------------

           1       2       3       4       5       6       7       8       9      10      11      12      13      14      15
 ...........................................................................................................................
   1  144.710 147.659 151.589 155.520 159.037 161.962 164.226 165.816 166.754 167.094 166.926 166.385 165.656 164.968 164.548
   2  144.702 147.648 151.574 155.498 159.005 161.914 164.154 165.707 166.590 166.849 166.564 165.867 164.952 164.081 163.540
   3  144.688 147.629 151.546 155.457 158.944 161.825 164.022 165.509 166.293 166.401 165.898 164.901 163.613 162.359 161.557
   4  144.668 147.603 151.509 155.403 158.866 161.710 163.854 165.260 165.919 165.839 165.053 163.649 161.826 159.985 158.766
   5  144.646 147.574 151.468 155.344 158.782 161.589 163.679 165.007 165.547 165.284 164.218 162.394 159.982 157.450 155.761
   6  144.624 147.546 151.428 155.288 158.702 161.479 163.526 164.794 165.249 164.863 163.615 161.515 158.709 155.745 154.158
   7  144.604 147.520 151.392 155.239 158.636 161.391 163.412 164.649 165.072 164.658 163.395 161.311 158.570 155.735 154.300
   8  144.588 147.499 151.364 155.201 158.587 161.330 163.340 164.575 165.012 164.652 163.519 161.705 159.448 157.282 156.103
   9  144.576 147.484 151.345 155.176 158.555 161.294 163.304 164.549 165.022 164.743 163.777 162.261 160.463 158.828 157.899
  10  144.571 147.477 151.335 155.163 158.541 161.278 163.290 164.545 165.045 164.822 163.962 162.624 161.080 159.713 158.925
1
  VOLUME BUDGET FOR ENTIRE MODEL AT END OF TIME STEP    1, STRESS PERIOD   1
  ------------------------------------------------------------------------------

     CUMULATIVE VOLUME      L**3       RATES FOR THIS TIME STEP      L**3/T
     ------------------                 ------------------------

           IN:                                      IN:
           ---                                      ---
         STORAGE(SS) =           0.0000           STORAGE(SS) =           0.0000
         STORAGE(SY) =           0.0000           STORAGE(SY) =           0.0000
               WELLS =           0.0000                 WELLS =           0.0000
       RIVER LEAKAGE =           0.0000         RIVER LEAKAGE =           0.0000
            RECHARGE =      145000.0000              RECHARGE =      145000.0000
       CONSTANT HEAD =           0.0000         CONSTANT HEAD =           0.0000

            TOTAL IN =      145000.0000              TOTAL IN =      145000.0000

          OUT:                                     OUT:
          ----                                     ----
         STORAGE(SS) =           0.0000           STORAGE(SS) =           0.0000
         STORAGE(SY) =           0.0000           STORAGE(SY) =           0.0000
               WELLS =           0.0000                 WELLS =           0.0000
       RIVER LEAKAGE =       87514.1920         RIVER LEAKAGE =       87514.1920
            RECHARGE =           0.0000              RECHARGE =           0.0000
       CONSTANT HEAD =       57482.4617         CONSTANT HEAD =       57482.4617

           TOTAL OUT =      144996.6537             TOTAL OUT =      144996.6537

            IN - OUT =           3.3463              IN - OUT =           3.3463

 PERCENT DISCREPANCY =           0.00     PERCENT DISCREPANCY =           0.00






         TIME SUMMARY AT END OF TIME STEP    1 IN STRESS PERIOD    1
                    SECONDS     MINUTES      HOURS       DAYS        YEARS
                    -----------------------------------------------------------
   TIME STEP LENGTH  86400.      1440.0      24.000      1.0000     2.73785E-03
 STRESS PERIOD TIME  86400.      1440.0      24.000      1.0000     2.73785E-03
         TOTAL TIME  86400.      1440.0      24.000      1.0000     2.73785E-03

 END OF FILE DETECTED IN OUTPUT CONTROL.
 CURRRENT OUTPUT CONTROL SETTINGS WILL BE 
 REPEATED UNTIL THE END OF THE SIMULATION.

 OUTPUT CONTROL FOR STRESS PERIOD 2 IS REPEATED USING SETTINGS FROM A PREVIOUS STRESS PERIOD.


 UPDATING STORAGE VALUES
 END UPDATING STORAGE VALUES


 STRESS PERIOD     2 IS        TRANSIENT


 REUSING RIVS FROM LAST STRESS PERIOD

 REUSING RCHS FROM LAST STRESS PERIOD

 REUSING CHDS FROM LAST STRESS PERIOD
1
  HEAD IN LAYER   1 AT END OF TIME STEP   1 IN STRESS PERIOD    2
  ---------------------------------------------------------------------------

           1       2       3       4       5       6       7       8       9      10      11      12      13      14      15
 ...........................................................................................................................
   1  130.449 137.503 141.493 144.827 148.766 152.594 155.947 158.689 160.736 162.095 162.822 163.022 162.852 162.520 162.265
   2  130.433 137.142 140.635 143.367 147.996 152.255 155.771 158.553 160.575 161.862 162.468 162.487 162.073 161.466 161.001
   3  130.417 136.775 139.515 140.551 146.999 151.893 155.567 158.350 160.297 161.438 161.803 161.445 160.480 159.182 158.119
   4  130.431 137.110 140.578 143.281 147.876 152.081 155.513 158.160 159.967 160.902 160.925 159.984 158.047 155.278 152.591
   5  130.446 137.444 141.389 144.672 148.547 152.277 155.476 157.978 159.641 160.364 160.013 158.351 154.946 149.051 140.000
   6  130.445 137.424 141.354 144.621 148.478 152.184 155.346 157.794 159.373 159.957 159.341 157.084 152.108 140.000 140.000
   7  130.428 137.052 140.476 143.131 147.674 151.812 155.139 157.633 159.214 159.788 159.179 156.974 152.118 140.000 140.000
   8  130.412 136.683 139.353 140.304 146.680 151.475 154.993 157.549 159.176 159.846 159.488 157.972 155.142 151.244 150.039
   9  130.427 137.027 140.435 143.075 147.605 151.732 155.055 157.565 159.218 159.996 159.903 158.978 157.375 155.574 154.697
  10  130.443 137.377 141.276 144.513 148.342 152.018 155.156 157.608 159.266 160.108 160.167 159.544 158.463 157.326 156.675
1
  HEAD IN LAYER   2 AT END OF TIME STEP   1 IN STRESS PERIOD    2
  ---------------------------------------------------------------------------

           1       2       3       4       5       6       7       8       9      10      11      12      13      14      15
 ...........................................................................................................................
   1  132.714 137.370 140.462 143.302 147.331 151.307 154.759 157.546 159.615 160.988 161.732 161.958 161.824 161.533 161.307
   2  132.609 136.921 139.237 140.502 146.155 150.864 154.560 157.406 159.456 160.763 161.397 161.461 161.115 160.593 160.198
   3  132.510 136.399 137.015 129.061 143.992 150.326 154.327 157.200 159.184 160.357 160.772 160.505 159.695 158.618 157.765
   4  132.596 136.886 139.180 140.417 146.035 150.692 154.304 157.020 158.866 159.847 159.958 159.196 157.607 155.422 153.438
   5  132.690 137.305 140.357 143.147 147.112 150.991 154.293 156.848 158.552 159.338 159.125 157.777 155.082 150.774 145.062
   6  132.681 137.283 140.322 143.097 147.043 150.898 154.163 156.666 158.291 158.952 158.515 156.708 152.926 144.994 144.298
   7  132.572 136.822 139.078 140.270 145.835 150.421 153.931 156.499 158.129 158.780 158.344 156.577 152.895 145.035 144.457
   8  132.472 136.298 136.853 128.824 143.678 149.906 153.753 156.406 158.082 158.813 158.577 157.328 155.046 152.078 150.998
   9  132.561 136.795 139.037 140.214 145.766 150.340 153.844 156.424 158.116 158.937 158.920 158.136 156.768 155.259 154.481
  10  132.661 137.231 140.243 142.988 146.906 150.730 153.970 156.471 158.160 159.034 159.145 158.607 157.647 156.639 156.050
1
  HEAD IN LAYER   3 AT END OF TIME STEP   1 IN STRESS PERIOD    2
  ---------------------------------------------------------------------------

           1       2       3       4       5       6       7       8       9      10      11      12      13      14      15
 ...........................................................................................................................
   1  134.957 137.239 139.442 141.791 145.910 150.033 153.584 156.414 158.505 159.892 160.653 160.905 160.807 160.556 160.360
   2  134.764 136.702 137.854 137.664 144.332 149.487 153.360 156.270 158.348 159.676 160.336 160.445 160.167 159.729 159.402
   3  134.583 136.027 134.539 117.685 141.016 148.773 153.099 156.062 158.083 159.286 159.751 159.574 158.919 158.059 157.414
   4  134.740 136.664 137.797 137.582 144.213 149.315 153.107 155.891 157.776 158.802 159.000 158.416 157.170 155.564 154.277
   5  134.911 137.168 139.336 141.638 145.691 149.718 153.122 155.729 157.473 158.322 158.245 157.209 155.218 152.480 150.074
   6  134.896 137.144 139.301 141.588 145.622 149.624 152.992 155.549 157.219 157.956 157.696 156.336 153.736 149.938 148.554
   7  134.694 136.594 137.694 137.436 144.014 149.044 152.734 155.375 157.055 157.781 157.517 156.183 153.665 150.020 148.870
   8  134.511 135.917 134.378 117.457 140.706 148.354 152.525 155.274 156.999 157.790 157.676 156.690 154.950 152.904 151.948
   9  134.674 136.565 137.653 137.381 143.945 148.962 152.645 155.295 157.025 157.889 157.947 157.302 156.167 154.947 154.266
  10  134.857 137.087 139.220 141.479 145.484 149.454 152.795 155.345 157.064 157.971 158.132 157.679 156.839 155.960 155.432
1
  HEAD IN LAYER   4 AT END OF TIME STEP   1 IN STRESS PERIOD    2
  ---------------------------------------------------------------------------

           1       2       3       4       5       6       7       8       9      10      11      12      13      14      15
 ...........................................................................................................................
   1  135.613 137.283 139.190 141.510 145.449 149.531 153.095 155.942 158.045 159.443 160.216 160.484 160.405 160.176 159.996
   2  135.409 136.784 137.866 138.567 144.127 149.020 152.874 155.798 157.890 159.231 159.909 160.042 159.800 159.405 159.111
   3  135.228 136.222 135.603 127.888 141.852 148.417 152.623 155.592 157.629 158.850 159.343 159.214 158.636 157.882 157.330
   4  135.381 136.745 137.809 138.484 144.009 148.849 152.622 155.423 157.327 158.379 158.623 158.130 157.050 155.704 154.684
   5  135.560 137.210 139.084 141.357 145.231 149.217 152.635 155.263 157.031 157.915 157.908 157.024 155.352 153.206 151.496
   6  135.542 137.185 139.048 141.307 145.163 149.123 152.506 155.085 156.780 157.558 157.387 156.237 154.124 151.335 150.093
   7  135.328 136.672 137.705 138.339 143.810 148.578 152.250 154.910 156.615 157.382 157.204 156.073 154.027 151.363 150.292
   8  135.145 136.108 135.441 127.662 141.544 147.997 152.050 154.808 156.554 157.379 157.328 156.471 154.978 153.296 152.433
   9  135.305 136.641 137.663 138.284 143.741 148.495 152.159 154.827 156.576 157.465 157.564 156.991 155.969 154.884 154.257
  10  135.498 137.125 138.966 141.199 145.024 148.952 152.307 154.877 156.613 157.540 157.730 157.322 156.544 155.729 155.234
1
  HEAD IN LAYER   5 AT END OF TIME STEP   1 IN STRESS PERIOD    2
  ---------------------------------------------------------------------------

           1       2       3       4       5       6       7       8       9      10      11      12      13      14      15
 ...........................................................................................................................
   1  136.069 137.314 139.014 141.314 145.129 149.182 152.755 155.614 157.726 159.131 159.912 160.190 160.126 159.912 159.741
   2  135.858 136.841 137.874 139.195 143.984 148.695 152.535 155.470 157.572 158.921 159.611 159.762 159.544 159.180 158.909
   3  135.677 136.358 136.343 134.991 142.435 148.168 152.292 155.265 157.312 158.547 159.059 158.964 158.440 157.759 157.272
   4  135.827 136.801 137.817 139.113 143.866 148.524 152.284 155.097 157.015 158.085 158.362 157.931 156.966 155.801 154.968
   5  136.012 137.239 138.908 141.162 144.911 148.868 152.297 154.939 156.722 157.631 157.673 156.895 155.445 153.711 152.487
   6  135.992 137.213 138.872 141.112 144.842 148.774 152.168 154.761 156.474 157.281 157.173 156.169 154.395 152.307 151.164
   7  135.770 136.726 137.713 138.968 143.668 148.253 151.913 154.587 156.309 157.104 156.987 155.997 154.278 152.297 151.282
   8  135.587 136.241 136.181 134.766 142.127 147.749 151.719 154.483 156.245 157.092 157.086 156.318 154.997 153.569 152.770
   9  135.745 136.694 137.671 138.913 143.599 148.171 151.821 154.501 156.264 157.170 157.297 156.774 155.832 154.840 154.251
  10  135.944 137.152 138.790 141.003 144.703 148.603 151.968 154.551 156.299 157.240 157.450 157.073 156.339 155.568 155.095
1
  VOLUME BUDGET FOR ENTIRE MODEL AT END OF TIME STEP    1, STRESS PERIOD   2
  ------------------------------------------------------------------------------

     CUMULATIVE VOLUME      L**3       RATES FOR THIS TIME STEP      L**3/T
     ------------------                 ------------------------

           IN:                                      IN:
           ---                                      ---
         STORAGE(SS) =       31739.8308           STORAGE(SS) =       14304.1437
         STORAGE(SY) =           0.0000           STORAGE(SY) =           0.0000
               WELLS =           0.0000                 WELLS =           0.0000
       RIVER LEAKAGE =           0.0000         RIVER LEAKAGE =           0.0000
            RECHARGE =      466744.2138              RECHARGE =      145000.0000
       CONSTANT HEAD =           0.0000         CONSTANT HEAD =           0.0000

            TOTAL IN =      498484.0446              TOTAL IN =      159304.1437

          OUT:                                     OUT:
          ----                                     ----
         STORAGE(SS) =           0.0000           STORAGE(SS) =           0.0000
         STORAGE(SY) =           0.0000           STORAGE(SY) =           0.0000
               WELLS =      155324.7929                 WELLS =       70000.0000
       RIVER LEAKAGE =      183601.8459         RIVER LEAKAGE =       43303.6842
            RECHARGE =           0.0000              RECHARGE =           0.0000
       CONSTANT HEAD =      159561.6641         CONSTANT HEAD =       46003.8867

           TOTAL OUT =      498488.3029             TOTAL OUT =      159307.5709

            IN - OUT =          -4.2583              IN - OUT =          -3.4272

 PERCENT DISCREPANCY =          -0.00     PERCENT DISCREPANCY =          -0.00






         TIME SUMMARY AT END OF TIME STEP    1 IN STRESS PERIOD    2
                    SECONDS     MINUTES      HOURS       DAYS        YEARS
                    -----------------------------------------------------------
   TIME STEP LENGTH 1.91715E+05  3195.3      53.254      2.2189     6.07509E-03
 STRESS PERIOD TIME 1.91715E+05  3195.3      53.254      2.2189     6.07509E-03
         TOTAL TIME 2.78115E+05  4635.3      77.254      3.2189     8.81294E-03
1
  HEAD IN LAYER   1 AT END OF TIME STEP   2 IN STRESS PERIOD    2
  ---------------------------------------------------------------------------

           1       2       3       4       5       6       7       8       9      10      11      12      13      14      15
 ...........................................................................................................................
   1  130.377 136.286 139.658 142.614 146.378 150.143 153.449 156.176 158.276 159.734 160.592 160.937 160.907 160.689 160.498
   2  130.361 135.914 138.764 141.084 145.572 149.797 153.279 156.049 158.128 159.521 160.269 160.448 160.194 159.724 159.341
   3  130.344 135.537 137.597 138.113 144.529 149.430 153.086 155.862 157.874 159.135 159.662 159.495 158.737 157.632 156.700
   4  130.359 135.885 138.712 141.003 145.458 149.638 153.046 155.692 157.575 158.647 158.861 158.162 156.512 154.057 151.612
   5  130.374 136.232 139.561 142.469 146.171 149.853 153.023 155.531 157.280 158.157 158.031 156.671 153.677 148.322 140.000
   6  130.373 136.213 139.530 142.422 146.108 149.768 152.905 155.364 157.037 157.788 157.420 155.521 151.063 140.000 140.000
   7  130.356 135.832 138.619 140.865 145.272 149.391 152.707 155.215 156.892 157.636 157.274 155.423 151.076 140.000 140.000
   8  130.340 135.454 137.449 137.884 144.235 149.047 152.564 155.136 156.857 157.689 157.558 156.336 153.873 150.365 149.286
   9  130.355 135.810 138.581 140.813 145.209 149.319 152.631 155.154 156.898 157.828 157.939 157.257 155.918 154.357 153.594
  10  130.371 136.171 139.458 142.322 145.981 149.617 152.736 155.198 156.944 157.932 158.181 157.776 156.914 155.961 155.407
1
  HEAD IN LAYER   2 AT END OF TIME STEP   2 IN STRESS PERIOD    2
  ---------------------------------------------------------------------------

           1       2       3       4       5       6       7       8       9      10      11      12      13      14      15
 ...........................................................................................................................
   1  132.031 135.904 138.479 140.971 144.826 148.735 152.158 154.954 157.091 158.573 159.455 159.830 159.837 159.660 159.497
   2  131.924 135.443 137.222 138.109 143.617 148.284 151.962 154.822 156.945 158.368 159.149 159.376 159.189 158.800 158.482
   3  131.823 134.911 134.958 126.544 141.416 147.741 151.738 154.632 156.697 157.998 158.579 158.503 157.891 156.992 156.253
   4  131.912 135.411 137.170 138.031 143.506 148.127 151.730 154.472 156.408 157.534 157.837 157.308 155.982 154.065 152.276
   5  132.009 135.845 138.383 140.828 144.622 148.447 151.736 154.321 156.125 157.072 157.079 156.014 153.674 149.790 144.558
   6  132.001 135.825 138.351 140.782 144.559 148.362 151.618 154.156 155.888 156.721 156.525 155.042 151.692 144.478 143.858
   7  131.889 135.353 137.076 137.896 143.323 147.880 151.392 154.000 155.741 156.566 156.371 154.925 151.668 144.519 144.007
   8  131.788 134.820 134.810 126.325 141.127 147.358 151.218 153.913 155.698 156.598 156.586 155.614 153.656 151.012 150.056
   9  131.880 135.329 137.039 137.844 143.259 147.807 151.314 153.934 155.731 156.713 156.901 156.355 155.235 153.943 153.273
  10  131.982 135.777 138.278 140.682 144.433 148.209 151.445 153.982 155.773 156.803 157.108 156.787 156.041 155.209 154.714
1
  HEAD IN LAYER   3 AT END OF TIME STEP   2 IN STRESS PERIOD    2
  ---------------------------------------------------------------------------

           1       2       3       4       5       6       7       8       9      10      11      12      13      14      15
 ...........................................................................................................................
   1  133.669 135.526 137.313 139.344 143.289 147.342 150.879 153.745 155.918 157.425 158.330 158.734 158.778 158.641 158.507
   2  133.471 134.977 135.695 135.165 141.683 146.787 150.658 153.608 155.773 157.227 158.041 158.314 158.194 157.885 157.631
   3  133.287 134.291 132.344 115.089 138.333 146.068 150.404 153.415 155.531 156.872 157.507 157.520 157.054 156.358 155.811
   4  133.449 134.942 135.643 135.089 141.574 146.630 150.428 153.264 155.253 156.433 156.823 156.464 155.457 154.074 152.933
   5  133.627 135.461 137.216 139.204 143.089 147.055 150.461 153.123 154.981 155.998 156.137 155.363 153.671 151.243 149.070
   6  133.613 135.439 137.184 139.158 143.026 146.970 150.344 152.960 154.751 155.665 155.638 154.568 152.314 148.913 147.678
   7  133.407 134.878 135.549 134.956 141.392 146.384 150.091 152.797 154.601 155.507 155.477 154.432 152.255 148.993 147.973
   8  133.221 134.191 132.197 114.880 138.051 145.686 149.884 152.702 154.550 155.517 155.625 154.899 153.441 151.652 150.817
   9  133.389 134.852 135.511 134.905 141.329 146.310 150.010 152.726 154.576 155.609 155.874 155.462 154.559 153.534 152.956
  10  133.578 135.388 137.110 139.059 142.900 146.816 150.166 152.778 154.614 155.685 156.045 155.807 155.176 154.464 154.028
1
  HEAD IN LAYER   4 AT END OF TIME STEP   2 IN STRESS PERIOD    2
  ---------------------------------------------------------------------------

           1       2       3       4       5       6       7       8       9      10      11      12      13      14      15
 ...........................................................................................................................
   1  134.132 135.478 137.021 139.047 142.814 146.821 150.375 153.262 155.450 156.969 157.887 158.306 158.369 158.251 158.133
   2  133.924 134.968 135.674 136.066 141.469 146.303 150.155 153.125 155.307 156.776 157.606 157.903 157.816 157.547 157.324
   3  133.740 134.398 133.386 125.329 139.173 145.697 149.912 152.933 155.068 156.429 157.091 157.148 156.754 156.154 155.694
   4  133.899 134.932 135.622 135.990 141.361 146.147 149.927 152.785 154.796 156.001 156.436 156.159 155.304 154.160 153.268
   5  134.085 135.411 136.924 138.907 142.614 146.535 149.958 152.646 154.529 155.580 155.785 155.151 153.752 151.870 150.341
   6  134.068 135.388 136.892 138.861 142.552 146.450 149.841 152.485 154.302 155.257 155.312 154.435 152.630 150.157 149.057
   7  133.850 134.866 135.527 135.858 141.180 145.902 149.590 152.321 154.151 155.097 155.147 154.288 152.545 150.188 149.246
   8  133.665 134.294 133.239 125.122 138.892 145.316 149.393 152.224 154.096 155.096 155.263 154.655 153.424 151.971 151.223
   9  133.830 134.838 135.489 135.808 141.117 145.827 149.509 152.246 154.118 155.176 155.480 155.134 154.336 153.434 152.906
  10  134.028 135.334 136.817 138.762 142.425 146.296 149.662 152.299 154.155 155.246 155.634 155.438 154.864 154.211 153.804
1
  HEAD IN LAYER   5 AT END OF TIME STEP   2 IN STRESS PERIOD    2
  ---------------------------------------------------------------------------

           1       2       3       4       5       6       7       8       9      10      11      12      13      14      15
 ...........................................................................................................................
   1  134.455 135.444 136.818 138.839 142.482 146.459 150.023 152.926 155.125 156.652 157.578 158.008 158.084 157.981 157.871
   2  134.239 134.961 135.660 136.693 141.321 145.967 149.806 152.788 154.983 156.461 157.303 157.617 157.554 157.311 157.110
   3  134.056 134.472 134.112 132.458 139.757 145.439 149.569 152.598 154.746 156.120 156.801 156.890 156.545 156.012 155.612
   4  134.211 134.925 135.607 136.617 141.213 145.811 149.578 152.451 154.477 155.701 156.166 155.948 155.199 154.221 153.501
   5  134.403 135.376 136.721 138.700 142.284 146.174 149.608 152.314 154.214 155.289 155.540 155.003 153.809 152.307 151.226
   6  134.385 135.352 136.688 138.655 142.221 146.089 149.492 152.153 153.990 154.972 155.085 154.342 152.850 151.023 150.017
   7  134.159 134.857 135.512 136.486 141.033 145.566 149.242 151.989 153.838 154.811 154.918 154.188 152.747 151.020 150.131
   8  133.974 134.366 133.964 132.253 139.477 145.059 149.052 151.891 153.780 154.803 155.011 154.486 153.412 152.193 151.506
   9  134.136 134.828 135.474 136.436 140.970 145.491 149.160 151.912 153.800 154.875 155.206 154.906 154.180 153.365 152.872
  10  134.341 135.296 136.614 138.556 142.095 145.934 149.312 151.965 153.835 154.940 155.347 155.181 154.646 154.034 153.648
1
  VOLUME BUDGET FOR ENTIRE MODEL AT END OF TIME STEP    2, STRESS PERIOD   2
  ------------------------------------------------------------------------------

     CUMULATIVE VOLUME      L**3       RATES FOR THIS TIME STEP      L**3/T
     ------------------                 ------------------------

           IN:                                      IN:
           ---                                      ---
         STORAGE(SS) =       38937.0900           STORAGE(SS) =        2948.7076
         STORAGE(SY) =           0.0000           STORAGE(SY) =           0.0000
               WELLS =           0.0000                 WELLS =           0.0000
       RIVER LEAKAGE =           0.0000         RIVER LEAKAGE =           0.0000
            RECHARGE =      820662.8489              RECHARGE =      145000.0000
       CONSTANT HEAD =           0.0000         CONSTANT HEAD =           0.0000

            TOTAL IN =      859599.9389              TOTAL IN =      147948.7076

          OUT:                                     OUT:
          ----                                     ----
         STORAGE(SS) =           0.0000           STORAGE(SS) =           0.0000
         STORAGE(SY) =           0.0000           STORAGE(SY) =           0.0000
               WELLS =      326182.0650                 WELLS =       70000.0000
       RIVER LEAKAGE =      271759.8788         RIVER LEAKAGE =       36118.2303
            RECHARGE =           0.0000              RECHARGE =           0.0000
       CONSTANT HEAD =      261660.8851         CONSTANT HEAD =       41829.9167

           TOTAL OUT =      859602.8288             TOTAL OUT =      147948.1470

            IN - OUT =          -2.8899              IN - OUT =           0.5606

 PERCENT DISCREPANCY =          -0.00     PERCENT DISCREPANCY =           0.00






         TIME SUMMARY AT END OF TIME STEP    2 IN STRESS PERIOD    2
                    SECONDS     MINUTES      HOURS       DAYS        YEARS
                    -----------------------------------------------------------
   TIME STEP LENGTH 2.10887E+05  3514.8      58.580      2.4408     6.68260E-03
 STRESS PERIOD TIME 4.02602E+05  6710.0      111.83      4.6597     1.27577E-02
         TOTAL TIME 4.89002E+05  8150.0      135.83      5.6597     1.54955E-02
1
  HEAD IN LAYER   1 AT END OF TIME STEP   3 IN STRESS PERIOD    2
  ---------------------------------------------------------------------------

           1       2       3       4       5       6       7       8       9      10      11      12      13      14      15
 ...........................................................................................................................
   1  130.364 136.055 139.304 142.177 145.894 149.634 152.917 155.624 157.719 159.185 160.061 160.430 160.425 160.230 160.052
   2  130.347 135.682 138.405 140.635 145.082 149.287 152.749 155.499 157.575 158.978 159.746 159.953 159.730 159.288 158.923
   3  130.331 135.304 137.230 137.636 144.033 148.921 152.557 155.316 157.327 158.602 159.154 159.024 158.308 157.246 156.345
   4  130.346 135.654 138.354 140.557 144.972 149.132 152.521 155.152 157.036 158.126 158.374 157.722 156.136 153.754 151.367
   5  130.361 136.002 139.210 142.036 145.693 149.352 152.502 154.996 156.750 157.650 157.564 156.268 153.368 148.142 140.000
   6  130.360 135.985 139.180 141.992 145.632 149.269 152.388 154.834 156.513 157.290 156.969 155.147 150.810 140.000 140.000
   7  130.343 135.603 138.264 140.423 144.791 148.892 152.191 154.688 156.372 157.142 156.828 155.053 150.824 140.000 140.000
   8  130.327 135.224 137.086 137.413 143.747 148.548 152.050 154.611 156.339 157.196 157.106 155.945 153.564 150.148 149.098
   9  130.342 135.582 138.228 140.373 144.730 148.822 152.118 154.630 156.379 157.332 157.479 156.846 155.563 154.056 153.318
  10  130.358 135.944 139.110 141.895 145.509 149.123 152.223 154.674 156.425 157.434 157.716 157.353 156.537 155.623 155.091
1
  HEAD IN LAYER   2 AT END OF TIME STEP   3 IN STRESS PERIOD    2
  ---------------------------------------------------------------------------

           1       2       3       4       5       6       7       8       9      10      11      12      13      14      15
 ...........................................................................................................................
   1  131.904 135.628 138.101 140.517 144.323 148.204 151.603 154.384 156.518 158.010 158.910 159.309 159.342 159.186 159.037
   2  131.797 135.167 136.840 137.648 143.112 147.753 151.409 154.254 156.375 157.810 158.612 158.866 158.709 158.347 158.046
   3  131.696 134.634 134.571 126.066 140.906 147.210 151.188 154.068 156.133 157.449 158.056 158.015 157.443 156.582 155.871
   4  131.785 135.136 136.790 137.572 143.004 147.599 151.184 153.914 155.853 156.997 157.333 156.850 155.580 153.725 151.981
   5  131.883 135.571 138.008 140.378 144.126 147.923 151.193 153.768 155.578 156.548 156.595 155.587 153.327 149.543 144.428
   6  131.875 135.551 137.977 140.334 144.065 147.841 151.079 153.608 155.348 156.207 156.055 154.641 151.389 144.348 143.745
   7  131.764 135.079 136.699 137.441 142.825 147.360 150.855 153.455 155.204 156.056 155.906 154.528 151.368 144.389 143.892
   8  131.662 134.545 134.428 125.853 140.626 146.838 150.682 153.369 155.163 156.088 156.117 155.201 153.315 150.746 149.817
   9  131.754 135.056 136.662 137.391 142.764 147.289 150.780 153.391 155.196 156.201 156.425 155.926 154.858 153.615 152.969
  10  131.857 135.506 137.906 140.237 143.942 147.693 150.911 153.440 155.238 156.289 156.627 156.348 155.646 154.852 154.378
1
  HEAD IN LAYER   3 AT END OF TIME STEP   3 IN STRESS PERIOD    2
  ---------------------------------------------------------------------------

           1       2       3       4       5       6       7       8       9      10      11      12      13      14      15
 ...........................................................................................................................
   1  133.430 135.206 136.910 138.873 142.768 146.788 150.303 153.156 155.328 156.845 157.770 158.198 158.269 158.153 158.031
   2  133.232 134.656 135.291 134.691 141.160 146.233 150.083 153.021 155.187 156.653 157.488 157.789 157.699 157.415 157.177
   3  133.048 133.970 131.939 114.611 137.810 145.516 149.832 152.832 154.951 156.308 156.969 157.016 156.587 155.925 155.401
   4  133.211 134.623 135.241 134.617 141.055 146.081 149.860 152.687 154.682 155.880 156.303 155.986 155.029 153.696 152.590
   5  133.390 135.144 136.817 138.737 142.574 146.509 149.897 152.552 154.418 155.457 155.635 154.913 153.287 150.931 148.813
   6  133.376 135.122 136.785 138.692 142.513 146.427 149.783 152.394 154.194 155.134 155.149 154.139 151.962 148.653 147.453
   7  133.170 134.561 135.149 134.488 140.879 145.842 149.532 152.234 154.048 154.980 154.993 154.007 151.906 148.734 147.745
   8  132.985 133.874 131.796 114.408 137.536 145.145 149.327 152.140 153.998 154.991 155.138 154.465 153.067 151.337 150.530
   9  133.153 134.535 135.113 134.439 140.818 145.770 149.455 152.165 154.025 155.081 155.382 155.015 154.161 153.178 152.623
  10  133.342 135.072 136.714 138.597 142.391 146.278 149.612 152.218 154.063 155.156 155.550 155.353 154.764 154.088 153.672
1
  HEAD IN LAYER   4 AT END OF TIME STEP   3 IN STRESS PERIOD    2
  ---------------------------------------------------------------------------

           1       2       3       4       5       6       7       8       9      10      11      12      13      14      15
 ...........................................................................................................................
   1  133.858 135.141 136.612 138.573 142.291 146.264 149.795 152.671 154.859 156.389 157.325 157.769 157.857 157.760 157.654
   2  133.649 134.630 135.264 135.590 140.945 145.747 149.577 152.536 154.719 156.200 157.052 157.376 157.318 157.073 156.865
   3  133.466 134.060 132.975 124.851 138.649 145.142 149.336 152.348 154.486 155.862 156.550 156.641 156.282 155.715 155.275
   4  133.625 134.596 135.213 135.517 140.840 145.595 149.355 152.205 154.222 155.446 155.912 155.677 154.869 153.769 152.906
   5  133.812 135.076 136.518 138.437 142.097 145.987 149.391 152.073 153.963 155.036 155.278 154.694 153.354 151.532 150.046
   6  133.795 135.054 136.486 138.393 142.037 145.904 149.277 151.915 153.743 154.722 154.819 153.997 152.259 149.859 148.792
   7  133.578 134.531 135.121 135.388 140.665 145.357 149.029 151.755 153.596 154.568 154.659 153.855 152.178 149.892 148.979
   8  133.393 133.960 132.832 124.651 138.376 144.773 148.833 151.660 153.543 154.567 154.773 154.215 153.039 151.638 150.916
   9  133.558 134.504 135.085 135.340 140.604 145.285 148.950 151.683 153.565 154.647 154.986 154.683 153.931 153.070 152.563
  10  133.757 135.001 136.414 138.297 141.914 145.755 149.104 151.736 153.602 154.715 155.136 154.980 154.448 153.829 153.442
1
  HEAD IN LAYER   5 AT END OF TIME STEP   3 IN STRESS PERIOD    2
  ---------------------------------------------------------------------------

           1       2       3       4       5       6       7       8       9      10      11      12      13      14      15
 ...........................................................................................................................
   1  134.156 135.095 136.404 138.364 141.958 145.900 149.441 152.333 154.532 156.070 157.015 157.469 157.571 157.488 157.390
   2  133.940 134.612 135.245 136.216 140.796 145.408 149.225 152.198 154.394 155.884 156.748 157.089 157.053 156.835 156.648
   3  133.756 134.123 133.697 131.980 139.233 144.882 148.992 152.012 154.163 155.553 156.259 156.380 156.070 155.568 155.187
   4  133.913 134.577 135.194 136.143 140.691 145.257 149.004 151.870 153.902 155.145 155.640 155.462 154.757 153.820 153.126
   5  134.105 135.029 136.310 138.228 141.765 145.623 149.038 151.739 153.647 154.744 155.031 154.542 153.401 151.952 150.904
   6  134.088 135.006 136.278 138.184 141.705 145.541 148.925 151.583 153.429 154.436 154.589 153.897 152.466 150.699 149.724
   7  133.862 134.511 135.102 136.015 140.517 145.019 148.678 151.421 153.282 154.280 154.427 153.749 152.368 150.698 149.838
   8  133.677 134.020 133.554 131.782 138.961 144.513 148.490 151.326 153.226 154.273 154.519 154.041 153.020 151.847 151.185
   9  133.840 134.483 135.065 135.967 140.456 144.947 148.599 151.348 153.245 154.344 154.710 154.452 153.771 152.994 152.521
  10  134.045 134.952 136.206 138.089 141.582 145.390 148.751 151.401 153.280 154.408 154.848 154.721 154.227 153.648 153.281
1
  VOLUME BUDGET FOR ENTIRE MODEL AT END OF TIME STEP    3, STRESS PERIOD   2
  ------------------------------------------------------------------------------

     CUMULATIVE VOLUME      L**3       RATES FOR THIS TIME STEP      L**3/T
     ------------------                 ------------------------

           IN:                                      IN:
           ---                                      ---
         STORAGE(SS) =       40496.1146           STORAGE(SS) =         580.6639
         STORAGE(SY) =           0.0000           STORAGE(SY) =           0.0000
               WELLS =           0.0000                 WELLS =           0.0000
       RIVER LEAKAGE =           0.0000         RIVER LEAKAGE =           0.0000
            RECHARGE =     1209973.3476              RECHARGE =      145000.0000
       CONSTANT HEAD =           0.0000         CONSTANT HEAD =           0.0000

            TOTAL IN =     1250469.4621              TOTAL IN =      145580.6639

          OUT:                                     OUT:
          ----                                     ----
         STORAGE(SS) =           0.0000           STORAGE(SS) =           0.0000
         STORAGE(SY) =           0.0000           STORAGE(SY) =           0.0000
               WELLS =      514125.0643                 WELLS =       70000.0000
       RIVER LEAKAGE =      365164.9981         RIVER LEAKAGE =       34789.0498
            RECHARGE =           0.0000              RECHARGE =           0.0000
       CONSTANT HEAD =      371174.3909         CONSTANT HEAD =       40788.6723

           TOTAL OUT =     1250464.4533             TOTAL OUT =      145577.7220

            IN - OUT =           5.0088              IN - OUT =           2.9419

 PERCENT DISCREPANCY =           0.00     PERCENT DISCREPANCY =           0.00






         TIME SUMMARY AT END OF TIME STEP    3 IN STRESS PERIOD    2
                    SECONDS     MINUTES      HOURS       DAYS        YEARS
                    -----------------------------------------------------------
   TIME STEP LENGTH 2.31975E+05  3866.3      64.438      2.6849     7.35086E-03
 STRESS PERIOD TIME 6.34577E+05  10576.      176.27      7.3446     2.01085E-02
         TOTAL TIME 7.20977E+05  12016.      200.27      8.3446     2.28464E-02
1
  HEAD IN LAYER   1 AT END OF TIME STEP   4 IN STRESS PERIOD    2
  ---------------------------------------------------------------------------

           1       2       3       4       5       6       7       8       9      10      11      12      13      14      15
 ...........................................................................................................................
   1  130.361 136.010 139.235 142.092 145.798 149.533 152.810 155.512 157.605 159.073 159.951 160.324 160.324 160.133 159.958
   2  130.345 135.638 138.335 140.548 144.986 149.186 152.642 155.387 157.462 158.866 159.638 159.850 159.633 159.196 158.835
   3  130.329 135.259 137.159 137.543 143.935 148.819 152.451 155.206 157.216 158.492 159.049 158.925 158.218 157.164 156.270
   4  130.343 135.610 138.285 140.470 144.876 149.032 152.416 155.043 156.927 158.019 158.273 157.631 156.057 153.690 151.315
   5  130.359 135.958 139.142 141.952 145.599 149.252 152.398 154.888 156.641 157.545 157.468 156.185 153.303 148.104 140.000
   6  130.358 135.941 139.112 141.908 145.538 149.170 152.284 154.727 156.407 157.188 156.876 155.070 150.757 140.000 140.000
   7  130.341 135.559 138.195 140.337 144.697 148.793 152.088 154.582 156.266 157.041 156.736 154.977 150.772 140.000 140.000
   8  130.324 135.180 137.016 137.321 143.650 148.448 151.948 154.505 156.234 157.094 157.013 155.864 153.500 150.102 149.058
   9  130.339 135.538 138.159 140.287 144.635 148.724 152.015 154.524 156.274 157.230 157.384 156.760 155.489 153.993 153.260
  10  130.355 135.900 139.043 141.811 145.416 149.025 152.121 154.568 156.319 157.331 157.620 157.265 156.458 155.552 155.024
1
  HEAD IN LAYER   2 AT END OF TIME STEP   4 IN STRESS PERIOD    2
  ---------------------------------------------------------------------------

           1       2       3       4       5       6       7       8       9      10      11      12      13      14      15
 ...........................................................................................................................
   1  131.880 135.575 138.028 140.428 144.224 148.098 151.492 154.268 156.400 157.893 158.796 159.200 159.237 159.086 158.939
   2  131.773 135.114 136.767 137.558 143.012 147.647 151.298 154.139 156.259 157.695 158.500 158.759 158.609 158.251 157.953
   3  131.672 134.581 134.497 125.973 140.806 147.104 151.077 153.954 156.018 157.336 157.947 157.913 157.349 156.496 155.790
   4  131.761 135.083 136.716 137.483 142.905 147.494 151.074 153.800 155.740 156.887 157.228 156.754 155.495 153.653 151.919
   5  131.859 135.519 137.935 140.291 144.028 147.820 151.084 153.656 155.466 156.440 156.494 155.499 153.254 149.491 144.401
   6  131.852 135.499 137.904 140.247 143.968 147.737 150.971 153.497 155.238 156.101 155.957 154.557 151.326 144.321 143.721
   7  131.740 135.027 136.626 137.352 142.728 147.256 150.748 153.345 155.095 155.951 155.810 154.445 151.305 144.361 143.867
   8  131.639 134.493 134.354 125.762 140.527 146.735 150.575 153.260 155.054 155.983 156.020 155.115 153.243 150.689 149.767
   9  131.731 135.004 136.590 137.303 142.667 147.186 150.673 153.282 155.087 156.096 156.327 155.836 154.779 153.546 152.904
  10  131.834 135.454 137.835 140.151 143.846 147.591 150.804 153.330 155.129 156.184 156.528 156.257 155.563 154.776 154.307
1
  HEAD IN LAYER   3 AT END OF TIME STEP   4 IN STRESS PERIOD    2
  ---------------------------------------------------------------------------

           1       2       3       4       5       6       7       8       9      10      11      12      13      14      15
 ...........................................................................................................................
   1  133.385 135.145 136.833 138.782 142.666 146.678 150.188 153.037 155.207 156.726 157.653 158.086 158.161 158.049 157.930
   2  133.187 134.595 135.214 134.599 141.058 146.123 149.968 152.902 155.067 156.534 157.373 157.679 157.594 157.316 157.080
   3  133.002 133.909 131.861 114.518 137.708 145.406 149.717 152.714 154.832 156.191 156.857 156.910 156.489 155.834 155.314
   4  133.166 134.562 135.163 134.525 140.953 145.972 149.746 152.571 154.565 155.766 156.194 155.886 154.939 153.616 152.517
   5  133.345 135.083 136.740 138.646 142.473 146.401 149.784 152.436 154.303 155.346 155.530 154.819 153.206 150.864 148.758
   6  133.331 135.062 136.709 138.602 142.413 146.319 149.671 152.279 154.081 155.025 155.047 154.049 151.888 148.598 147.406
   7  133.125 134.501 135.073 134.397 140.778 145.735 149.421 152.121 153.936 154.872 154.893 153.919 151.833 148.679 147.696
   8  132.940 133.813 131.719 114.317 137.435 145.038 149.216 152.027 153.886 154.883 155.038 154.374 152.989 151.271 150.469
   9  133.108 134.475 135.037 134.349 140.718 145.664 149.344 152.052 153.913 154.973 155.281 154.922 154.077 153.103 152.552
  10  133.297 135.012 136.638 138.507 142.292 146.171 149.501 152.105 153.951 155.048 155.447 155.258 154.678 154.009 153.596
1
  HEAD IN LAYER   4 AT END OF TIME STEP   4 IN STRESS PERIOD    2
  ---------------------------------------------------------------------------

           1       2       3       4       5       6       7       8       9      10      11      12      13      14      15
 ...........................................................................................................................
   1  133.806 135.076 136.533 138.481 142.188 146.154 149.679 152.551 154.738 156.269 157.208 157.656 157.749 157.656 157.553
   2  133.597 134.566 135.185 135.497 140.843 145.636 149.461 152.416 154.599 156.081 156.936 157.266 157.213 156.973 156.768
   3  133.413 133.996 132.896 124.758 138.546 145.032 149.221 152.230 154.368 155.746 156.438 156.534 156.183 155.622 155.186
   4  133.573 134.532 135.135 135.425 140.739 145.486 149.241 152.088 154.105 155.332 155.803 155.576 154.777 153.686 152.829
   5  133.760 135.012 136.440 138.346 141.996 145.878 149.277 151.957 153.848 154.925 155.173 154.599 153.270 151.461 149.983
   6  133.744 134.990 136.409 138.302 141.936 145.796 149.165 151.801 153.629 154.613 154.716 153.905 152.181 149.796 148.736
   7  133.527 134.468 135.044 135.298 140.564 145.249 148.917 151.641 153.483 154.459 154.558 153.764 152.101 149.829 148.922
   8  133.341 133.896 132.754 124.560 138.276 144.665 148.722 151.546 153.430 154.459 154.671 154.123 152.958 151.567 150.851
   9  133.507 134.441 135.007 135.249 140.504 145.178 148.839 151.570 153.453 154.538 154.884 154.589 153.846 152.993 152.490
  10  133.705 134.938 136.337 138.207 141.814 145.648 148.993 151.623 153.489 154.606 155.033 154.885 154.360 153.748 153.365
1
  HEAD IN LAYER   5 AT END OF TIME STEP   4 IN STRESS PERIOD    2
  ---------------------------------------------------------------------------

           1       2       3       4       5       6       7       8       9      10      11      12      13      14      15
 ...........................................................................................................................
   1  134.099 135.029 136.325 138.271 141.855 145.789 149.325 152.213 154.411 155.950 156.898 157.356 157.462 157.384 157.288
   2  133.883 134.546 135.165 136.123 140.693 145.297 149.109 152.078 154.273 155.765 156.632 156.978 156.948 156.734 156.550
   3  133.700 134.056 133.617 131.888 139.130 144.771 148.876 151.893 154.044 155.435 156.146 156.273 155.970 155.474 155.096
   4  133.856 134.511 135.115 136.051 140.589 145.147 148.889 151.752 153.785 155.030 155.531 155.360 154.664 153.735 153.046
   5  134.049 134.963 136.231 138.137 141.664 145.514 148.924 151.623 153.531 154.632 154.925 154.445 153.315 151.876 150.836
   6  134.032 134.940 136.200 138.094 141.604 145.432 148.812 151.467 153.315 154.326 154.486 153.805 152.386 150.631 149.662
   7  133.806 134.445 135.023 135.924 140.416 144.911 148.566 151.307 153.168 154.171 154.325 153.657 152.289 150.630 149.776
   8  133.621 133.954 133.475 131.691 138.861 144.405 148.377 151.212 153.113 154.164 154.417 153.949 152.937 151.774 151.117
   9  133.784 134.418 134.987 135.876 140.355 144.839 148.487 151.234 153.133 154.235 154.607 154.358 153.685 152.915 152.447
  10  133.990 134.887 136.128 137.999 141.482 145.283 148.640 151.287 153.168 154.299 154.745 154.625 154.139 153.567 153.204
1
  VOLUME BUDGET FOR ENTIRE MODEL AT END OF TIME STEP    4, STRESS PERIOD   2
  ------------------------------------------------------------------------------

     CUMULATIVE VOLUME      L**3       RATES FOR THIS TIME STEP      L**3/T
     ------------------                 ------------------------

           IN:                                      IN:
           ---                                      ---
         STORAGE(SS) =       40810.6329           STORAGE(SS) =         106.4940
         STORAGE(SY) =           0.0000           STORAGE(SY) =           0.0000
               WELLS =           0.0000                 WELLS =           0.0000
       RIVER LEAKAGE =           0.0000         RIVER LEAKAGE =           0.0000
            RECHARGE =     1638214.8961              RECHARGE =      145000.0000
       CONSTANT HEAD =           0.0000         CONSTANT HEAD =           0.0000

            TOTAL IN =     1679025.5290              TOTAL IN =      145106.4940

          OUT:                                     OUT:
          ----                                     ----
         STORAGE(SS) =           0.0000           STORAGE(SS) =           0.0000
         STORAGE(SY) =           0.0000           STORAGE(SY) =           0.0000
               WELLS =      720862.3636                 WELLS =       70000.0000
       RIVER LEAKAGE =      467159.7385         RIVER LEAKAGE =       34534.8026
            RECHARGE =           0.0000              RECHARGE =           0.0000
       CONSTANT HEAD =      490992.4793         CONSTANT HEAD =       40569.6806

           TOTAL OUT =     1679014.5814             TOTAL OUT =      145104.4832

            IN - OUT =          10.9476              IN - OUT =           2.0108

 PERCENT DISCREPANCY =           0.00     PERCENT DISCREPANCY =           0.00






         TIME SUMMARY AT END OF TIME STEP    4 IN STRESS PERIOD    2
                    SECONDS     MINUTES      HOURS       DAYS        YEARS
                    -----------------------------------------------------------
   TIME STEP LENGTH 2.55173E+05  4252.9      70.881      2.9534     8.08594E-03
 STRESS PERIOD TIME 8.89750E+05  14829.      247.15      10.298     2.81945E-02
         TOTAL TIME 9.76150E+05  16269.      271.15      11.298     3.09323E-02
1
  HEAD IN LAYER   1 AT END OF TIME STEP   5 IN STRESS PERIOD    2
  ---------------------------------------------------------------------------

           1       2       3       4       5       6       7       8       9      10      11      12      13      14      15
 ...........................................................................................................................
   1  130.361 136.002 139.222 142.076 145.780 149.514 152.789 155.490 157.583 159.050 159.929 160.303 160.304 160.114 159.939
   2  130.344 135.629 138.322 140.531 144.968 149.166 152.622 155.366 157.440 158.845 159.616 159.830 159.614 159.178 158.817
   3  130.328 135.251 137.145 137.525 143.916 148.800 152.431 155.184 157.194 158.471 159.029 158.906 158.200 157.148 156.255
   4  130.343 135.601 138.272 140.453 144.858 149.013 152.396 155.022 156.906 157.998 158.253 157.613 156.041 153.678 151.305
   5  130.358 135.950 139.130 141.936 145.581 149.233 152.378 154.868 156.621 157.525 157.449 156.168 153.290 148.097 140.000
   6  130.357 135.933 139.099 141.892 145.520 149.151 152.265 154.706 156.387 157.169 156.858 155.055 150.747 140.000 140.000
   7  130.340 135.551 138.182 140.321 144.679 148.774 152.069 154.561 156.246 157.022 156.718 154.962 150.762 140.000 140.000
   8  130.324 135.171 137.003 137.304 143.632 148.429 151.928 154.485 156.213 157.075 156.995 155.848 153.488 150.093 149.050
   9  130.339 135.530 138.146 140.271 144.618 148.705 151.996 154.504 156.254 157.211 157.366 156.744 155.474 153.980 153.249
  10  130.355 135.892 139.030 141.795 145.398 149.006 152.102 154.548 156.299 157.312 157.601 157.248 156.443 155.538 155.011
1
  HEAD IN LAYER   2 AT END OF TIME STEP   5 IN STRESS PERIOD    2
  ---------------------------------------------------------------------------

           1       2       3       4       5       6       7       8       9      10      11      12      13      14      15
 ...........................................................................................................................
   1  131.876 135.565 138.014 140.412 144.206 148.078 151.471 154.246 156.378 157.871 158.774 159.178 159.217 159.066 158.920
   2  131.768 135.104 136.753 137.541 142.993 147.627 151.277 154.116 156.236 157.672 158.478 158.738 158.589 158.232 157.935
   3  131.668 134.571 134.483 125.955 140.787 147.084 151.056 153.932 155.996 157.314 157.926 157.893 157.330 156.479 155.774
   4  131.757 135.073 136.702 137.466 142.886 147.475 151.053 153.779 155.718 156.865 157.208 156.735 155.478 153.639 151.906
   5  131.855 135.509 137.922 140.275 144.010 147.800 151.064 153.635 155.445 156.419 156.475 155.481 153.240 149.481 144.395
   6  131.847 135.489 137.891 140.230 143.949 147.718 150.951 153.476 155.217 156.081 155.938 154.541 151.313 144.315 143.717
   7  131.735 135.017 136.613 137.336 142.709 147.237 150.727 153.324 155.074 155.931 155.791 154.429 151.292 144.356 143.862
   8  131.634 134.483 134.340 125.745 140.509 146.715 150.555 153.239 155.033 155.963 156.002 155.099 153.229 150.678 149.757
   9  131.726 134.994 136.576 137.286 142.649 147.167 150.653 153.261 155.066 156.076 156.308 155.819 154.764 153.532 152.892
  10  131.829 135.444 137.821 140.135 143.828 147.572 150.784 153.310 155.108 156.164 156.509 156.239 155.547 154.762 154.293
1
  HEAD IN LAYER   3 AT END OF TIME STEP   5 IN STRESS PERIOD    2
  ---------------------------------------------------------------------------

           1       2       3       4       5       6       7       8       9      10      11      12      13      14      15
 ...........................................................................................................................
   1  133.376 135.133 136.818 138.764 142.647 146.657 150.166 153.014 155.184 156.702 157.630 158.064 158.140 158.028 157.910
   2  133.178 134.584 135.199 134.581 141.039 146.103 149.946 152.879 155.044 156.511 157.351 157.658 157.574 157.296 157.061
   3  132.994 133.897 131.846 114.500 137.688 145.385 149.695 152.692 154.810 156.168 156.835 156.889 156.469 155.816 155.297
   4  133.157 134.551 135.149 134.508 140.934 145.952 149.724 152.548 154.542 155.744 156.173 155.866 154.921 153.600 152.502
   5  133.336 135.072 136.726 138.629 142.454 146.381 149.762 152.414 154.280 155.324 155.510 154.801 153.190 150.851 148.747
   6  133.322 135.051 136.695 138.585 142.394 146.299 149.650 152.258 154.059 155.003 155.028 154.032 151.874 148.587 147.396
   7  133.117 134.489 135.058 134.380 140.759 145.715 149.400 152.099 153.914 154.851 154.873 153.901 151.818 148.668 147.686
   8  132.931 133.802 131.705 114.300 137.416 145.018 149.195 152.006 153.865 154.862 155.018 154.356 152.974 151.258 150.457
   9  133.100 134.464 135.022 134.332 140.699 145.644 149.323 152.031 153.891 154.952 155.261 154.904 154.061 153.089 152.539
  10  133.289 135.001 136.624 138.490 142.273 146.151 149.480 152.084 153.930 155.027 155.427 155.240 154.661 153.993 153.581
1
  HEAD IN LAYER   4 AT END OF TIME STEP   5 IN STRESS PERIOD    2
  ---------------------------------------------------------------------------

           1       2       3       4       5       6       7       8       9      10      11      12      13      14      15
 ...........................................................................................................................
   1  133.796 135.064 136.518 138.463 142.169 146.133 149.657 152.528 154.714 156.245 157.185 157.634 157.728 157.635 157.532
   2  133.587 134.554 135.170 135.480 140.823 145.616 149.439 152.394 154.576 156.058 156.914 157.244 157.192 156.953 156.748
   3  133.404 133.984 132.881 124.741 138.527 145.011 149.199 152.207 154.345 155.723 156.415 156.513 156.163 155.603 155.168
   4  133.563 134.520 135.120 135.408 140.719 145.465 149.219 152.066 154.082 155.310 155.782 155.556 154.759 153.670 152.813
   5  133.750 135.000 136.425 138.329 141.977 145.858 149.256 151.935 153.826 154.903 155.153 154.580 153.254 151.447 149.971
   6  133.734 134.978 136.394 138.285 141.917 145.776 149.143 151.779 153.607 154.591 154.696 153.887 152.166 149.784 148.725
   7  133.517 134.456 135.029 135.280 140.546 145.229 148.896 151.619 153.462 154.438 154.538 153.747 152.086 149.817 148.911
   8  133.332 133.884 132.740 124.542 138.257 144.645 148.701 151.525 153.409 154.438 154.652 154.105 152.943 151.554 150.838
   9  133.497 134.429 134.992 135.232 140.485 145.158 148.818 151.548 153.431 154.517 154.864 154.571 153.830 152.978 152.476
  10  133.696 134.926 136.323 138.190 141.796 145.628 148.972 151.601 153.468 154.585 155.013 154.866 154.343 153.732 153.350
1
  HEAD IN LAYER   5 AT END OF TIME STEP   5 IN STRESS PERIOD    2
  ---------------------------------------------------------------------------

           1       2       3       4       5       6       7       8       9      10      11      12      13      14      15
 ...........................................................................................................................
   1  134.088 135.016 136.309 138.254 141.836 145.768 149.303 152.190 154.388 155.927 156.875 157.334 157.441 157.363 157.268
   2  133.872 134.533 135.150 136.106 140.673 145.276 149.087 152.055 154.250 155.742 156.609 156.956 156.927 156.714 156.530
   3  133.689 134.044 133.602 131.870 139.111 144.751 148.854 151.870 154.021 155.412 156.124 156.252 155.950 155.455 155.078
   4  133.846 134.498 135.100 136.034 140.570 145.127 148.868 151.730 153.762 155.008 155.510 155.340 154.646 153.719 153.030
   5  134.038 134.950 136.216 138.120 141.644 145.493 148.903 151.600 153.509 154.610 154.904 154.426 153.299 151.862 150.822
   6  134.021 134.928 136.185 138.076 141.585 145.412 148.791 151.445 153.293 154.304 154.466 153.786 152.370 150.617 149.650
   7  133.795 134.433 135.009 135.907 140.397 144.891 148.545 151.285 153.147 154.150 154.305 153.639 152.273 150.616 149.764
   8  133.611 133.942 133.460 131.674 138.842 144.385 148.356 151.190 153.091 154.143 154.397 153.931 152.921 151.760 151.103
   9  133.774 134.405 134.972 135.859 140.336 144.819 148.466 151.213 153.111 154.214 154.587 154.339 153.669 152.900 152.433
  10  133.979 134.874 136.113 137.981 141.463 145.263 148.619 151.265 153.146 154.278 154.725 154.606 154.122 153.551 153.188
1
  VOLUME BUDGET FOR ENTIRE MODEL AT END OF TIME STEP    5, STRESS PERIOD   2
  ------------------------------------------------------------------------------

     CUMULATIVE VOLUME      L**3       RATES FOR THIS TIME STEP      L**3/T
     ------------------                 ------------------------

           IN:                                      IN:
           ---                                      ---
         STORAGE(SS) =       40871.0752           STORAGE(SS) =          18.6049
         STORAGE(SY) =           0.0000           STORAGE(SY) =           0.0000
               WELLS =           0.0000                 WELLS =           0.0000
       RIVER LEAKAGE =           0.0000         RIVER LEAKAGE =           0.0000
            RECHARGE =     2109280.5995              RECHARGE =      145000.0000
       CONSTANT HEAD =           0.0000         CONSTANT HEAD =           0.0000

            TOTAL IN =     2150151.6747              TOTAL IN =      145018.6049

          OUT:                                     OUT:
          ----                                     ----
         STORAGE(SS) =           0.0000           STORAGE(SS) =           0.0000
         STORAGE(SY) =           0.0000           STORAGE(SY) =           0.0000
               WELLS =      948273.3929                 WELLS =       70000.0000
       RIVER LEAKAGE =      579199.5910         RIVER LEAKAGE =       34487.2881
            RECHARGE =           0.0000              RECHARGE =           0.0000
       CONSTANT HEAD =      622652.9670         CONSTANT HEAD =       40526.7685

           TOTAL OUT =     2150125.9508             TOTAL OUT =      145014.0566

            IN - OUT =          25.7239              IN - OUT =           4.5483

 PERCENT DISCREPANCY =           0.00     PERCENT DISCREPANCY =           0.00






         TIME SUMMARY AT END OF TIME STEP    5 IN STRESS PERIOD    2
                    SECONDS     MINUTES      HOURS       DAYS        YEARS
                    -----------------------------------------------------------
   TIME STEP LENGTH 2.80690E+05  4678.2      77.969      3.2487     8.89454E-03
 STRESS PERIOD TIME 1.17044E+06  19507.      325.12      13.547     3.70890E-02
         TOTAL TIME 1.25684E+06  20947.      349.12      14.547     3.98269E-02
1
  HEAD IN LAYER   1 AT END OF TIME STEP   6 IN STRESS PERIOD    2
  ---------------------------------------------------------------------------

           1       2       3       4       5       6       7       8       9      10      11      12      13      14      15
 ...........................................................................................................................
   1  130.361 136.002 139.222 142.076 145.780 149.514 152.789 155.490 157.583 159.050 159.929 160.303 160.304 160.114 159.939
   2  130.344 135.629 138.322 140.531 144.968 149.166 152.622 155.366 157.440 158.845 159.616 159.830 159.614 159.178 158.817
   3  130.328 135.251 137.145 137.525 143.916 148.800 152.431 155.184 157.194 158.471 159.029 158.906 158.200 157.148 156.255
   4  130.343 135.601 138.272 140.453 144.858 149.013 152.396 155.022 156.906 157.998 158.253 157.613 156.041 153.678 151.305
   5  130.358 135.950 139.130 141.936 145.581 149.233 152.378 154.868 156.621 157.525 157.449 156.168 153.290 148.097 140.000
   6  130.357 135.933 139.099 141.892 145.520 149.151 152.265 154.706 156.387 157.169 156.858 155.055 150.747 140.000 140.000
   7  130.340 135.551 138.182 140.321 144.679 148.774 152.069 154.561 156.246 157.022 156.718 154.962 150.762 140.000 140.000
   8  130.324 135.171 137.003 137.304 143.632 148.429 151.928 154.485 156.213 157.075 156.995 155.848 153.488 150.093 149.050
   9  130.339 135.530 138.146 140.271 144.618 148.705 151.996 154.504 156.254 157.211 157.366 156.744 155.474 153.980 153.249
  10  130.355 135.892 139.030 141.795 145.398 149.006 152.102 154.548 156.299 157.312 157.601 157.248 156.443 155.538 155.011
1
  HEAD IN LAYER   2 AT END OF TIME STEP   6 IN STRESS PERIOD    2
  ---------------------------------------------------------------------------

           1       2       3       4       5       6       7       8       9      10      11      12      13      14      15
 ...........................................................................................................................
   1  131.876 135.565 138.014 140.412 144.206 148.078 151.471 154.246 156.378 157.871 158.774 159.178 159.217 159.066 158.920
   2  131.768 135.104 136.753 137.541 142.993 147.627 151.277 154.116 156.236 157.672 158.478 158.738 158.589 158.232 157.935
   3  131.668 134.571 134.483 125.955 140.787 147.084 151.056 153.932 155.996 157.314 157.926 157.893 157.330 156.479 155.774
   4  131.757 135.073 136.702 137.466 142.886 147.475 151.053 153.779 155.718 156.865 157.208 156.735 155.478 153.639 151.906
   5  131.854 135.509 137.922 140.275 144.010 147.800 151.064 153.635 155.445 156.419 156.475 155.481 153.240 149.481 144.395
   6  131.847 135.489 137.891 140.230 143.949 147.718 150.951 153.476 155.217 156.081 155.938 154.541 151.313 144.315 143.717
   7  131.735 135.017 136.613 137.336 142.709 147.237 150.727 153.324 155.074 155.931 155.791 154.429 151.293 144.356 143.862
   8  131.634 134.483 134.340 125.745 140.509 146.715 150.555 153.239 155.033 155.963 156.002 155.099 153.229 150.678 149.757
   9  131.726 134.994 136.576 137.286 142.649 147.167 150.653 153.261 155.066 156.076 156.308 155.819 154.764 153.532 152.892
  10  131.829 135.444 137.821 140.135 143.828 147.572 150.784 153.310 155.108 156.164 156.509 156.239 155.547 154.762 154.293
1
  HEAD IN LAYER   3 AT END OF TIME STEP   6 IN STRESS PERIOD    2
  ---------------------------------------------------------------------------

           1       2       3       4       5       6       7       8       9      10      11      12      13      14      15
 ...........................................................................................................................
   1  133.376 135.133 136.818 138.764 142.647 146.657 150.166 153.014 155.184 156.702 157.630 158.064 158.140 158.028 157.910
   2  133.178 134.584 135.199 134.581 141.039 146.103 149.946 152.879 155.044 156.511 157.351 157.658 157.574 157.296 157.061
   3  132.994 133.897 131.846 114.500 137.688 145.385 149.695 152.692 154.809 156.168 156.835 156.889 156.469 155.816 155.297
   4  133.157 134.551 135.149 134.508 140.934 145.952 149.724 152.548 154.542 155.744 156.173 155.866 154.921 153.600 152.502
   5  133.336 135.072 136.726 138.629 142.454 146.381 149.762 152.414 154.280 155.324 155.510 154.801 153.190 150.851 148.747
   6  133.322 135.051 136.695 138.585 142.394 146.299 149.650 152.258 154.059 155.003 155.028 154.032 151.874 148.587 147.396
   7  133.117 134.489 135.058 134.380 140.759 145.715 149.400 152.099 153.914 154.851 154.873 153.901 151.818 148.668 147.686
   8  132.931 133.802 131.705 114.300 137.416 145.018 149.195 152.005 153.865 154.862 155.018 154.356 152.974 151.258 150.457
   9  133.100 134.464 135.022 134.332 140.699 145.644 149.323 152.031 153.891 154.952 155.261 154.904 154.061 153.089 152.539
  10  133.289 135.001 136.624 138.490 142.273 146.151 149.480 152.084 153.929 155.027 155.427 155.240 154.661 153.993 153.581
1
  HEAD IN LAYER   4 AT END OF TIME STEP   6 IN STRESS PERIOD    2
  ---------------------------------------------------------------------------

           1       2       3       4       5       6       7       8       9      10      11      12      13      14      15
 ...........................................................................................................................
   1  133.796 135.064 136.518 138.463 142.169 146.133 149.657 152.528 154.714 156.245 157.185 157.634 157.728 157.635 157.532
   2  133.587 134.554 135.170 135.480 140.823 145.616 149.439 152.394 154.576 156.058 156.914 157.244 157.192 156.953 156.748
   3  133.404 133.984 132.881 124.741 138.527 145.011 149.199 152.207 154.345 155.723 156.415 156.513 156.163 155.603 155.168
   4  133.563 134.520 135.120 135.408 140.719 145.465 149.219 152.066 154.082 155.310 155.782 155.556 154.759 153.670 152.813
   5  133.750 135.000 136.425 138.329 141.977 145.858 149.256 151.935 153.826 154.903 155.153 154.580 153.254 151.447 149.971
   6  133.734 134.978 136.394 138.285 141.917 145.776 149.143 151.779 153.607 154.591 154.696 153.887 152.166 149.784 148.725
   7  133.517 134.456 135.029 135.280 140.546 145.229 148.896 151.619 153.462 154.438 154.538 153.747 152.086 149.817 148.911
   8  133.332 133.884 132.740 124.542 138.257 144.645 148.701 151.525 153.409 154.438 154.652 154.105 152.943 151.554 150.838
   9  133.497 134.429 134.993 135.232 140.485 145.157 148.818 151.549 153.431 154.517 154.864 154.571 153.830 152.978 152.476
  10  133.696 134.926 136.323 138.190 141.796 145.628 148.972 151.601 153.468 154.585 155.013 154.866 154.343 153.732 153.350
1
  HEAD IN LAYER   5 AT END OF TIME STEP   6 IN STRESS PERIOD    2
  ---------------------------------------------------------------------------

           1       2       3       4       5       6       7       8       9      10      11      12      13      14      15
 ...........................................................................................................................
   1  134.088 135.016 136.309 138.254 141.836 145.768 149.303 152.190 154.388 155.927 156.875 157.334 157.441 157.363 157.268
   2  133.872 134.533 135.150 136.106 140.673 145.276 149.087 152.055 154.250 155.742 156.609 156.956 156.927 156.714 156.530
   3  133.689 134.044 133.602 131.870 139.111 144.751 148.854 151.870 154.021 155.412 156.124 156.252 155.950 155.455 155.078
   4  133.846 134.498 135.100 136.034 140.570 145.127 148.868 151.730 153.762 155.008 155.510 155.340 154.646 153.718 153.030
   5  134.038 134.950 136.216 138.120 141.644 145.493 148.903 151.600 153.509 154.610 154.904 154.426 153.299 151.862 150.822
   6  134.021 134.928 136.185 138.076 141.585 145.412 148.791 151.445 153.293 154.304 154.466 153.786 152.370 150.617 149.650
   7  133.795 134.433 135.009 135.907 140.397 144.891 148.545 151.285 153.147 154.150 154.305 153.639 152.273 150.616 149.764
   8  133.611 133.942 133.460 131.674 138.842 144.385 148.356 151.190 153.091 154.143 154.397 153.931 152.921 151.760 151.103
   9  133.774 134.405 134.972 135.859 140.336 144.819 148.466 151.213 153.111 154.214 154.587 154.339 153.669 152.900 152.433
  10  133.979 134.874 136.113 137.981 141.463 145.263 148.619 151.265 153.146 154.278 154.725 154.606 154.122 153.551 153.188
1
  VOLUME BUDGET FOR ENTIRE MODEL AT END OF TIME STEP    6, STRESS PERIOD   2
  ------------------------------------------------------------------------------

     CUMULATIVE VOLUME      L**3       RATES FOR THIS TIME STEP      L**3/T
     ------------------                 ------------------------

           IN:                                      IN:
           ---                                      ---
         STORAGE(SS) =       40871.1633           STORAGE(SS) =       2.4649E-02
         STORAGE(SY) =           0.0000           STORAGE(SY) =           0.0000
               WELLS =           0.0000                 WELLS =           0.0000
       RIVER LEAKAGE =           0.0000         RIVER LEAKAGE =           0.0000
            RECHARGE =     2627452.8732              RECHARGE =      145000.0000
       CONSTANT HEAD =           0.0000         CONSTANT HEAD =           0.0000

            TOTAL IN =     2668324.0365              TOTAL IN =      145000.0246

          OUT:                                     OUT:
          ----                                     ----
         STORAGE(SS) =       4.0546E-04           STORAGE(SS) =       1.1346E-04
         STORAGE(SY) =           0.0000           STORAGE(SY) =           0.0000
               WELLS =     1198425.5250                 WELLS =       70000.0000
       RIVER LEAKAGE =      702443.5028         RIVER LEAKAGE =       34487.3088
            RECHARGE =           0.0000              RECHARGE =           0.0000
       CONSTANT HEAD =      767479.5676         CONSTANT HEAD =       40526.7865

           TOTAL OUT =     2668348.5958             TOTAL OUT =      145014.0954

            IN - OUT =         -24.5593              IN - OUT =         -14.0707

 PERCENT DISCREPANCY =          -0.00     PERCENT DISCREPANCY =          -0.01






         TIME SUMMARY AT END OF TIME STEP    6 IN STRESS PERIOD    2
                    SECONDS     MINUTES      HOURS       DAYS        YEARS
                    -----------------------------------------------------------
   TIME STEP LENGTH 3.08759E+05  5146.0      85.766      3.5736     9.78399E-03
 STRESS PERIOD TIME 1.47920E+06  24653.      410.89      17.120     4.68730E-02
         TOTAL TIME 1.56560E+06  26093.      434.89      18.120     4.96109E-02
1
  HEAD IN LAYER   1 AT END OF TIME STEP   7 IN STRESS PERIOD    2
  ---------------------------------------------------------------------------

           1       2       3       4       5       6       7       8       9      10      11      12      13      14      15
 ...........................................................................................................................
   1  130.361 136.002 139.222 142.076 145.780 149.514 152.789 155.490 157.583 159.050 159.929 160.303 160.304 160.114 159.939
   2  130.344 135.629 138.322 140.531 144.968 149.166 152.622 155.366 157.440 158.845 159.616 159.830 159.614 159.178 158.817
   3  130.328 135.251 137.145 137.525 143.916 148.800 152.431 155.184 157.194 158.471 159.029 158.906 158.200 157.148 156.255
   4  130.343 135.601 138.272 140.453 144.858 149.013 152.396 155.022 156.906 157.998 158.253 157.613 156.041 153.678 151.305
   5  130.358 135.950 139.130 141.936 145.581 149.233 152.378 154.868 156.621 157.525 157.449 156.168 153.290 148.097 140.000
   6  130.357 135.933 139.099 141.892 145.520 149.151 152.265 154.706 156.387 157.169 156.858 155.055 150.747 140.000 140.000
   7  130.340 135.551 138.182 140.321 144.679 148.774 152.069 154.561 156.246 157.022 156.718 154.962 150.762 140.000 140.000
   8  130.324 135.171 137.003 137.304 143.632 148.429 151.928 154.485 156.213 157.075 156.995 155.848 153.488 150.093 149.050
   9  130.339 135.530 138.146 140.271 144.618 148.705 151.996 154.504 156.254 157.211 157.366 156.744 155.474 153.980 153.249
  10  130.355 135.892 139.030 141.796 145.398 149.006 152.102 154.548 156.299 157.312 157.601 157.248 156.443 155.538 155.011
1
  HEAD IN LAYER   2 AT END OF TIME STEP   7 IN STRESS PERIOD    2
  ---------------------------------------------------------------------------

           1       2       3       4       5       6       7       8       9      10      11      12      13      14      15
 ...........................................................................................................................
   1  131.876 135.565 138.014 140.412 144.206 148.078 151.471 154.246 156.378 157.871 158.774 159.178 159.217 159.066 158.920
   2  131.768 135.104 136.753 137.541 142.993 147.627 151.277 154.116 156.236 157.672 158.478 158.738 158.588 158.232 157.935
   3  131.668 134.571 134.483 125.955 140.787 147.084 151.056 153.932 155.996 157.314 157.926 157.893 157.330 156.479 155.774
   4  131.757 135.073 136.702 137.466 142.886 147.475 151.053 153.779 155.718 156.865 157.208 156.735 155.478 153.638 151.906
   5  131.854 135.509 137.922 140.274 144.010 147.800 151.064 153.635 155.445 156.419 156.475 155.481 153.240 149.481 144.395
   6  131.847 135.489 137.891 140.230 143.949 147.718 150.951 153.476 155.217 156.081 155.938 154.541 151.313 144.315 143.717
   7  131.735 135.017 136.613 137.336 142.709 147.237 150.727 153.324 155.074 155.931 155.791 154.429 151.292 144.356 143.862
   8  131.634 134.483 134.340 125.745 140.509 146.715 150.555 153.239 155.033 155.963 156.002 155.099 153.229 150.678 149.757
   9  131.726 134.994 136.576 137.286 142.649 147.167 150.653 153.261 155.066 156.076 156.308 155.819 154.764 153.532 152.892
  10  131.829 135.444 137.821 140.135 143.828 147.572 150.784 153.310 155.108 156.164 156.509 156.239 155.547 154.762 154.293
1
  HEAD IN LAYER   3 AT END OF TIME STEP   7 IN STRESS PERIOD    2
  ---------------------------------------------------------------------------

           1       2       3       4       5       6       7       8       9      10      11      12      13      14      15
 ...........................................................................................................................
   1  133.376 135.133 136.818 138.764 142.647 146.657 150.166 153.014 155.184 156.702 157.630 158.064 158.140 158.028 157.910
   2  133.178 134.584 135.199 134.581 141.039 146.103 149.946 152.879 155.044 156.511 157.351 157.658 157.574 157.296 157.061
   3  132.994 133.897 131.846 114.500 137.688 145.385 149.695 152.692 154.809 156.168 156.835 156.889 156.469 155.816 155.297
   4  133.157 134.551 135.149 134.508 140.934 145.952 149.724 152.548 154.542 155.744 156.173 155.866 154.921 153.600 152.502
   5  133.336 135.072 136.726 138.629 142.454 146.381 149.762 152.414 154.280 155.324 155.510 154.801 153.190 150.851 148.747
   6  133.322 135.051 136.694 138.585 142.394 146.299 149.650 152.258 154.059 155.003 155.028 154.032 151.874 148.587 147.396
   7  133.117 134.489 135.058 134.380 140.759 145.715 149.400 152.099 153.914 154.851 154.873 153.901 151.818 148.668 147.686
   8  132.931 133.802 131.705 114.300 137.416 145.018 149.195 152.005 153.865 154.862 155.018 154.356 152.974 151.258 150.457
   9  133.100 134.464 135.022 134.332 140.699 145.644 149.323 152.031 153.891 154.952 155.261 154.904 154.061 153.089 152.539
  10  133.289 135.001 136.624 138.490 142.273 146.151 149.480 152.084 153.929 155.027 155.427 155.240 154.661 153.993 153.581
1
  HEAD IN LAYER   4 AT END OF TIME STEP   7 IN STRESS PERIOD    2
  ---------------------------------------------------------------------------

           1       2       3       4       5       6       7       8       9      10      11      12      13      14      15
 ...........................................................................................................................
   1  133.796 135.064 136.518 138.463 142.169 146.133 149.657 152.528 154.714 156.245 157.185 157.634 157.728 157.635 157.532
   2  133.587 134.554 135.170 135.480 140.823 145.616 149.439 152.394 154.576 156.058 156.914 157.244 157.192 156.953 156.748
   3  133.404 133.984 132.881 124.741 138.527 145.011 149.199 152.207 154.345 155.723 156.415 156.513 156.163 155.603 155.168
   4  133.563 134.520 135.120 135.408 140.719 145.465 149.219 152.066 154.082 155.310 155.782 155.556 154.759 153.670 152.813
   5  133.750 135.000 136.425 138.329 141.977 145.858 149.256 151.934 153.826 154.903 155.153 154.580 153.254 151.447 149.971
   6  133.734 134.978 136.394 138.285 141.917 145.776 149.143 151.779 153.607 154.591 154.696 153.887 152.166 149.784 148.725
   7  133.517 134.456 135.029 135.280 140.546 145.229 148.896 151.619 153.462 154.438 154.538 153.747 152.086 149.817 148.911
   8  133.332 133.884 132.740 124.542 138.257 144.645 148.701 151.525 153.409 154.438 154.652 154.105 152.943 151.554 150.838
   9  133.497 134.429 134.992 135.232 140.485 145.157 148.818 151.548 153.431 154.517 154.864 154.571 153.830 152.978 152.476
  10  133.696 134.926 136.323 138.190 141.796 145.628 148.972 151.601 153.468 154.585 155.013 154.866 154.343 153.732 153.350
1
  HEAD IN LAYER   5 AT END OF TIME STEP   7 IN STRESS PERIOD    2
  ---------------------------------------------------------------------------

           1       2       3       4       5       6       7       8       9      10      11      12      13      14      15
 ...........................................................................................................................
   1  134.088 135.016 136.309 138.254 141.836 145.768 149.303 152.190 154.388 155.927 156.875 157.334 157.441 157.363 157.268
   2  133.872 134.533 135.150 136.106 140.673 145.276 149.087 152.055 154.250 155.742 156.609 156.956 156.927 156.714 156.530
   3  133.689 134.044 133.602 131.870 139.111 144.751 148.854 151.870 154.021 155.412 156.124 156.252 155.950 155.455 155.078
   4  133.846 134.498 135.100 136.034 140.570 145.127 148.868 151.730 153.762 155.008 155.510 155.340 154.645 153.718 153.030
   5  134.038 134.950 136.216 138.120 141.644 145.493 148.903 151.600 153.509 154.610 154.904 154.426 153.299 151.862 150.822
   6  134.021 134.928 136.185 138.076 141.585 145.412 148.791 151.445 153.293 154.304 154.466 153.786 152.370 150.617 149.650
   7  133.795 134.433 135.009 135.907 140.397 144.891 148.545 151.285 153.147 154.150 154.305 153.639 152.273 150.616 149.764
   8  133.611 133.942 133.460 131.674 138.842 144.385 148.356 151.190 153.091 154.143 154.397 153.931 152.921 151.760 151.103
   9  133.774 134.405 134.972 135.859 140.336 144.819 148.466 151.213 153.111 154.214 154.587 154.339 153.669 152.900 152.433
  10  133.979 134.874 136.113 137.981 141.463 145.263 148.619 151.265 153.146 154.278 154.725 154.606 154.122 153.551 153.188
1
  VOLUME BUDGET FOR ENTIRE MODEL AT END OF TIME STEP    7, STRESS PERIOD   2
  ------------------------------------------------------------------------------

     CUMULATIVE VOLUME      L**3       RATES FOR THIS TIME STEP      L**3/T
     ------------------                 ------------------------

           IN:                                      IN:
           ---                                      ---
         STORAGE(SS) =       40871.1875           STORAGE(SS) =       6.1649E-03
         STORAGE(SY) =           0.0000           STORAGE(SY) =           0.0000
               WELLS =           0.0000                 WELLS =           0.0000
       RIVER LEAKAGE =           0.0000         RIVER LEAKAGE =           0.0000
            RECHARGE =     3197442.3743              RECHARGE =      145000.0000
       CONSTANT HEAD =           0.0000         CONSTANT HEAD =           0.0000

            TOTAL IN =     3238313.5618              TOTAL IN =      145000.0062

          OUT:                                     OUT:
          ----                                     ----
         STORAGE(SS) =       5.2649E-03           STORAGE(SS) =       1.2362E-03
         STORAGE(SY) =           0.0000           STORAGE(SY) =           0.0000
               WELLS =     1473592.8704                 WELLS =       70000.0000
       RIVER LEAKAGE =      838011.6078         RIVER LEAKAGE =       34487.2584
            RECHARGE =           0.0000              RECHARGE =           0.0000
       CONSTANT HEAD =      926788.7063         CONSTANT HEAD =       40526.7555

           TOTAL OUT =     3238393.1898             TOTAL OUT =      145014.0151

            IN - OUT =         -79.6279              IN - OUT =         -14.0090

 PERCENT DISCREPANCY =          -0.00     PERCENT DISCREPANCY =          -0.01






         TIME SUMMARY AT END OF TIME STEP    7 IN STRESS PERIOD    2
                    SECONDS     MINUTES      HOURS       DAYS        YEARS
                    -----------------------------------------------------------
   TIME STEP LENGTH 3.39635E+05  5660.6      94.343      3.9310     1.07624E-02
 STRESS PERIOD TIME 1.81883E+06  30314.      505.23      21.051     5.76354E-02
         TOTAL TIME 1.90523E+06  31754.      529.23      22.051     6.03732E-02
1
  HEAD IN LAYER   1 AT END OF TIME STEP   8 IN STRESS PERIOD    2
  ---------------------------------------------------------------------------

           1       2       3       4       5       6       7       8       9      10      11      12      13      14      15
 ...........................................................................................................................
   1  130.361 136.002 139.222 142.076 145.780 149.514 152.789 155.490 157.583 159.050 159.929 160.303 160.304 160.114 159.939
   2  130.344 135.629 138.322 140.531 144.968 149.166 152.622 155.366 157.440 158.845 159.616 159.830 159.614 159.178 158.817
   3  130.328 135.251 137.145 137.525 143.916 148.800 152.431 155.184 157.194 158.471 159.029 158.906 158.200 157.148 156.255
   4  130.343 135.601 138.272 140.453 144.858 149.013 152.396 155.022 156.906 157.998 158.253 157.613 156.041 153.678 151.305
   5  130.358 135.950 139.130 141.936 145.581 149.233 152.378 154.868 156.621 157.525 157.449 156.168 153.290 148.097 140.000
   6  130.357 135.933 139.099 141.892 145.520 149.151 152.265 154.706 156.387 157.169 156.858 155.055 150.747 140.000 140.000
   7  130.340 135.551 138.182 140.321 144.679 148.774 152.069 154.561 156.246 157.022 156.718 154.962 150.762 140.000 140.000
   8  130.324 135.171 137.003 137.304 143.632 148.429 151.928 154.485 156.213 157.075 156.995 155.848 153.488 150.093 149.050
   9  130.339 135.530 138.146 140.271 144.618 148.705 151.996 154.504 156.254 157.211 157.366 156.744 155.474 153.980 153.249
  10  130.355 135.892 139.030 141.795 145.398 149.006 152.102 154.548 156.299 157.312 157.601 157.248 156.443 155.538 155.011
1
  HEAD IN LAYER   2 AT END OF TIME STEP   8 IN STRESS PERIOD    2
  ---------------------------------------------------------------------------

           1       2       3       4       5       6       7       8       9      10      11      12      13      14      15
 ...........................................................................................................................
   1  131.876 135.565 138.014 140.412 144.206 148.078 151.471 154.246 156.378 157.871 158.774 159.178 159.217 159.066 158.920
   2  131.768 135.104 136.753 137.541 142.993 147.627 151.277 154.116 156.236 157.672 158.478 158.738 158.588 158.232 157.935
   3  131.668 134.571 134.483 125.955 140.787 147.084 151.056 153.932 155.996 157.314 157.926 157.893 157.330 156.479 155.774
   4  131.757 135.073 136.702 137.466 142.886 147.475 151.053 153.779 155.718 156.865 157.208 156.735 155.478 153.639 151.906
   5  131.854 135.509 137.922 140.274 144.010 147.800 151.064 153.635 155.445 156.419 156.475 155.481 153.240 149.481 144.395
   6  131.847 135.489 137.891 140.230 143.949 147.718 150.951 153.476 155.217 156.081 155.938 154.541 151.313 144.315 143.717
   7  131.735 135.017 136.613 137.336 142.709 147.237 150.727 153.324 155.074 155.931 155.791 154.429 151.292 144.356 143.862
   8  131.634 134.483 134.340 125.745 140.509 146.715 150.555 153.239 155.033 155.963 156.002 155.099 153.229 150.678 149.757
   9  131.726 134.994 136.576 137.286 142.649 147.167 150.653 153.261 155.066 156.076 156.308 155.819 154.764 153.532 152.892
  10  131.829 135.444 137.821 140.135 143.828 147.572 150.784 153.310 155.108 156.164 156.509 156.239 155.547 154.762 154.293
1
  HEAD IN LAYER   3 AT END OF TIME STEP   8 IN STRESS PERIOD    2
  ---------------------------------------------------------------------------

           1       2       3       4       5       6       7       8       9      10      11      12      13      14      15
 ...........................................................................................................................
   1  133.376 135.133 136.818 138.764 142.647 146.657 150.166 153.014 155.184 156.702 157.630 158.064 158.139 158.028 157.910
   2  133.178 134.584 135.199 134.581 141.039 146.103 149.946 152.879 155.044 156.511 157.350 157.658 157.574 157.296 157.061
   3  132.994 133.897 131.846 114.500 137.688 145.385 149.695 152.692 154.809 156.168 156.835 156.889 156.469 155.816 155.297
   4  133.157 134.551 135.149 134.508 140.934 145.952 149.724 152.548 154.542 155.744 156.173 155.866 154.921 153.600 152.502
   5  133.336 135.072 136.726 138.629 142.454 146.381 149.762 152.414 154.280 155.324 155.510 154.801 153.190 150.851 148.747
   6  133.322 135.051 136.694 138.585 142.394 146.299 149.650 152.258 154.059 155.003 155.028 154.032 151.874 148.587 147.396
   7  133.117 134.489 135.058 134.380 140.759 145.715 149.400 152.099 153.914 154.851 154.873 153.901 151.818 148.668 147.686
   8  132.931 133.802 131.705 114.300 137.416 145.018 149.195 152.005 153.865 154.862 155.018 154.356 152.974 151.258 150.457
   9  133.100 134.464 135.022 134.332 140.699 145.644 149.323 152.031 153.891 154.952 155.261 154.904 154.061 153.089 152.539
  10  133.289 135.001 136.624 138.490 142.273 146.151 149.480 152.084 153.929 155.027 155.427 155.240 154.661 153.993 153.581
1
  HEAD IN LAYER   4 AT END OF TIME STEP   8 IN STRESS PERIOD    2
  ---------------------------------------------------------------------------

           1       2       3       4       5       6       7       8       9      10      11      12      13      14      15
 ...........................................................................................................................
   1  133.796 135.064 136.518 138.463 142.169 146.133 149.657 152.528 154.714 156.245 157.185 157.634 157.728 157.635 157.532
   2  133.587 134.554 135.170 135.480 140.823 145.616 149.439 152.394 154.576 156.058 156.914 157.244 157.192 156.953 156.748
   3  133.404 133.984 132.881 124.741 138.527 145.011 149.199 152.207 154.345 155.723 156.415 156.513 156.163 155.603 155.168
   4  133.563 134.520 135.120 135.407 140.719 145.465 149.219 152.066 154.082 155.310 155.782 155.556 154.759 153.670 152.813
   5  133.750 135.000 136.425 138.329 141.977 145.858 149.256 151.934 153.826 154.903 155.153 154.580 153.254 151.447 149.971
   6  133.734 134.978 136.394 138.285 141.917 145.776 149.143 151.779 153.607 154.591 154.696 153.887 152.166 149.784 148.725
   7  133.517 134.456 135.029 135.280 140.546 145.229 148.896 151.619 153.462 154.438 154.538 153.747 152.086 149.817 148.911
   8  133.332 133.884 132.740 124.542 138.257 144.645 148.701 151.525 153.409 154.438 154.652 154.105 152.943 151.554 150.838
   9  133.497 134.429 134.992 135.232 140.485 145.157 148.817 151.548 153.431 154.517 154.864 154.571 153.830 152.978 152.476
  10  133.696 134.926 136.323 138.190 141.796 145.628 148.972 151.601 153.468 154.585 155.013 154.866 154.343 153.732 153.350
1
  HEAD IN LAYER   5 AT END OF TIME STEP   8 IN STRESS PERIOD    2
  ---------------------------------------------------------------------------

           1       2       3       4       5       6       7       8       9      10      11      12      13      14      15
 ...........................................................................................................................
   1  134.088 135.016 136.309 138.254 141.836 145.768 149.303 152.190 154.388 155.927 156.875 157.334 157.441 157.363 157.268
   2  133.872 134.533 135.150 136.106 140.673 145.276 149.087 152.055 154.250 155.742 156.609 156.956 156.927 156.714 156.530
   3  133.689 134.044 133.602 131.870 139.111 144.751 148.854 151.870 154.021 155.412 156.124 156.252 155.950 155.455 155.078
   4  133.846 134.498 135.100 136.034 140.570 145.127 148.868 151.730 153.762 155.007 155.510 155.340 154.645 153.718 153.030
   5  134.038 134.950 136.216 138.120 141.644 145.493 148.903 151.600 153.509 154.610 154.904 154.426 153.298 151.862 150.822
   6  134.021 134.928 136.185 138.076 141.585 145.412 148.791 151.445 153.293 154.304 154.466 153.786 152.370 150.617 149.650
   7  133.795 134.433 135.009 135.907 140.397 144.891 148.545 151.285 153.147 154.150 154.305 153.639 152.273 150.616 149.764
   8  133.611 133.942 133.460 131.673 138.842 144.385 148.356 151.190 153.091 154.143 154.397 153.931 152.921 151.760 151.103
   9  133.774 134.405 134.972 135.859 140.336 144.819 148.466 151.213 153.111 154.214 154.587 154.339 153.669 152.900 152.433
  10  133.979 134.874 136.113 137.981 141.463 145.263 148.618 151.265 153.146 154.278 154.725 154.606 154.122 153.551 153.188
1
  VOLUME BUDGET FOR ENTIRE MODEL AT END OF TIME STEP    8, STRESS PERIOD   2
  ------------------------------------------------------------------------------

     CUMULATIVE VOLUME      L**3       RATES FOR THIS TIME STEP      L**3/T
     ------------------                 ------------------------

           IN:                                      IN:
           ---                                      ---
         STORAGE(SS) =       40871.2475           STORAGE(SS) =       1.3866E-02
         STORAGE(SY) =           0.0000           STORAGE(SY) =           0.0000
               WELLS =           0.0000                 WELLS =           0.0000
       RIVER LEAKAGE =           0.0000         RIVER LEAKAGE =           0.0000
            RECHARGE =     3824430.8255              RECHARGE =      145000.0000
       CONSTANT HEAD =           0.0000         CONSTANT HEAD =           0.0000

            TOTAL IN =     3865302.0730              TOTAL IN =      145000.0139

          OUT:                                     OUT:
          ----                                     ----
         STORAGE(SS) =       5.6535E-03           STORAGE(SS) =       8.9878E-05
         STORAGE(SY) =           0.0000           STORAGE(SY) =           0.0000
               WELLS =     1776276.9502                 WELLS =       70000.0000
       RIVER LEAKAGE =      987136.1849         RIVER LEAKAGE =       34487.1802
            RECHARGE =           0.0000              RECHARGE =           0.0000
       CONSTANT HEAD =     1102028.7780         CONSTANT HEAD =       40526.7599

           TOTAL OUT =     3865441.9188             TOTAL OUT =      145013.9401

            IN - OUT =        -139.8458              IN - OUT =         -13.9262

 PERCENT DISCREPANCY =          -0.00     PERCENT DISCREPANCY =          -0.01






         TIME SUMMARY AT END OF TIME STEP    8 IN STRESS PERIOD    2
                    SECONDS     MINUTES      HOURS       DAYS        YEARS
                    -----------------------------------------------------------
   TIME STEP LENGTH 3.73599E+05  6226.6      103.78      4.3241     1.18386E-02
 STRESS PERIOD TIME 2.19243E+06  36541.      609.01      25.375     6.94740E-02
         TOTAL TIME 2.27883E+06  37981.      633.01      26.375     7.22119E-02
1
  HEAD IN LAYER   1 AT END OF TIME STEP   9 IN STRESS PERIOD    2
  ---------------------------------------------------------------------------

           1       2       3       4       5       6       7       8       9      10      11      12      13      14      15
 ...........................................................................................................................
   1  130.361 136.002 139.222 142.076 145.780 149.514 152.789 155.490 157.583 159.050 159.929 160.303 160.304 160.114 159.939
   2  130.344 135.629 138.322 140.531 144.968 149.166 152.622 155.366 157.440 158.845 159.616 159.830 159.614 159.178 158.817
   3  130.328 135.251 137.145 137.525 143.916 148.800 152.431 155.184 157.194 158.471 159.029 158.906 158.200 157.148 156.255
   4  130.343 135.601 138.272 140.453 144.858 149.013 152.396 155.022 156.906 157.998 158.253 157.613 156.041 153.678 151.305
   5  130.358 135.950 139.130 141.936 145.581 149.233 152.378 154.868 156.621 157.525 157.449 156.168 153.290 148.097 140.000
   6  130.357 135.933 139.099 141.892 145.520 149.151 152.264 154.706 156.387 157.169 156.858 155.055 150.747 140.000 140.000
   7  130.340 135.551 138.182 140.321 144.679 148.774 152.069 154.561 156.246 157.022 156.718 154.962 150.762 140.000 140.000
   8  130.324 135.171 137.003 137.304 143.632 148.429 151.928 154.485 156.213 157.075 156.995 155.848 153.487 150.093 149.050
   9  130.339 135.530 138.146 140.271 144.618 148.705 151.996 154.504 156.254 157.211 157.365 156.744 155.474 153.980 153.249
  10  130.355 135.892 139.030 141.795 145.398 149.006 152.102 154.548 156.299 157.312 157.601 157.248 156.443 155.538 155.011
1
  HEAD IN LAYER   2 AT END OF TIME STEP   9 IN STRESS PERIOD    2
  ---------------------------------------------------------------------------

           1       2       3       4       5       6       7       8       9      10      11      12      13      14      15
 ...........................................................................................................................
   1  131.876 135.565 138.014 140.412 144.206 148.078 151.471 154.246 156.378 157.871 158.774 159.178 159.217 159.066 158.920
   2  131.768 135.104 136.753 137.541 142.993 147.627 151.277 154.116 156.236 157.672 158.478 158.738 158.588 158.232 157.935
   3  131.668 134.571 134.483 125.955 140.787 147.084 151.056 153.932 155.996 157.314 157.926 157.893 157.330 156.479 155.774
   4  131.757 135.073 136.702 137.466 142.886 147.475 151.053 153.779 155.718 156.865 157.208 156.735 155.478 153.638 151.906
   5  131.854 135.509 137.922 140.274 144.010 147.800 151.064 153.635 155.445 156.419 156.475 155.481 153.240 149.481 144.395
   6  131.847 135.489 137.891 140.230 143.949 147.718 150.951 153.476 155.217 156.081 155.938 154.541 151.313 144.315 143.717
   7  131.735 135.017 136.613 137.336 142.709 147.237 150.727 153.324 155.074 155.931 155.791 154.429 151.292 144.356 143.862
   8  131.634 134.483 134.340 125.745 140.509 146.715 150.555 153.239 155.033 155.963 156.002 155.099 153.229 150.678 149.757
   9  131.726 134.994 136.576 137.286 142.649 147.167 150.653 153.261 155.066 156.076 156.308 155.819 154.764 153.532 152.892
  10  131.829 135.444 137.821 140.135 143.828 147.572 150.784 153.310 155.108 156.164 156.509 156.239 155.547 154.762 154.293
1
  HEAD IN LAYER   3 AT END OF TIME STEP   9 IN STRESS PERIOD    2
  ---------------------------------------------------------------------------

           1       2       3       4       5       6       7       8       9      10      11      12      13      14      15
 ...........................................................................................................................
   1  133.376 135.133 136.818 138.764 142.647 146.657 150.166 153.014 155.184 156.702 157.630 158.064 158.139 158.028 157.910
   2  133.178 134.584 135.199 134.581 141.039 146.103 149.946 152.879 155.044 156.511 157.350 157.658 157.574 157.296 157.061
   3  132.994 133.897 131.846 114.500 137.688 145.385 149.695 152.691 154.809 156.168 156.835 156.889 156.469 155.815 155.297
   4  133.157 134.551 135.149 134.508 140.934 145.952 149.724 152.548 154.542 155.744 156.173 155.866 154.921 153.600 152.502
   5  133.336 135.072 136.726 138.629 142.454 146.381 149.762 152.414 154.280 155.324 155.510 154.801 153.190 150.851 148.747
   6  133.322 135.051 136.694 138.585 142.394 146.299 149.650 152.258 154.059 155.003 155.028 154.032 151.874 148.587 147.396
   7  133.117 134.489 135.058 134.380 140.759 145.715 149.400 152.099 153.914 154.851 154.873 153.901 151.818 148.668 147.686
   8  132.931 133.802 131.705 114.300 137.416 145.018 149.195 152.005 153.865 154.862 155.018 154.356 152.974 151.258 150.457
   9  133.100 134.464 135.022 134.332 140.699 145.644 149.323 152.031 153.891 154.952 155.261 154.904 154.061 153.089 152.539
  10  133.289 135.001 136.624 138.490 142.273 146.151 149.480 152.084 153.929 155.027 155.427 155.240 154.661 153.993 153.581
1
  HEAD IN LAYER   4 AT END OF TIME STEP   9 IN STRESS PERIOD    2
  ---------------------------------------------------------------------------

           1       2       3       4       5       6       7       8       9      10      11      12      13      14      15
 ...........................................................................................................................
   1  133.796 135.064 136.518 138.463 142.169 146.133 149.657 152.528 154.714 156.245 157.185 157.634 157.728 157.635 157.532
   2  133.587 134.554 135.170 135.480 140.823 145.615 149.439 152.393 154.576 156.058 156.914 157.244 157.192 156.953 156.748
   3  133.404 133.984 132.881 124.741 138.527 145.011 149.199 152.207 154.345 155.723 156.415 156.513 156.163 155.603 155.168
   4  133.563 134.520 135.120 135.407 140.719 145.465 149.219 152.066 154.082 155.310 155.782 155.556 154.759 153.670 152.813
   5  133.750 135.000 136.425 138.329 141.977 145.858 149.256 151.934 153.826 154.903 155.153 154.580 153.254 151.447 149.971
   6  133.734 134.978 136.394 138.285 141.917 145.776 149.143 151.779 153.607 154.591 154.696 153.887 152.166 149.784 148.725
   7  133.517 134.456 135.029 135.280 140.546 145.229 148.895 151.619 153.462 154.438 154.538 153.747 152.086 149.817 148.911
   8  133.332 133.884 132.740 124.542 138.257 144.645 148.701 151.525 153.408 154.438 154.652 154.105 152.943 151.554 150.838
   9  133.497 134.429 134.992 135.232 140.485 145.157 148.817 151.548 153.431 154.517 154.864 154.571 153.830 152.978 152.476
  10  133.696 134.926 136.323 138.190 141.796 145.628 148.972 151.601 153.467 154.585 155.013 154.866 154.343 153.732 153.350
1
  HEAD IN LAYER   5 AT END OF TIME STEP   9 IN STRESS PERIOD    2
  ---------------------------------------------------------------------------

           1       2       3       4       5       6       7       8       9      10      11      12      13      14      15
 ...........................................................................................................................
   1  134.088 135.016 136.309 138.254 141.836 145.768 149.303 152.190 154.388 155.927 156.875 157.334 157.441 157.363 157.268
   2  133.872 134.533 135.150 136.106 140.673 145.276 149.087 152.055 154.250 155.742 156.609 156.956 156.927 156.714 156.530
   3  133.689 134.044 133.602 131.870 139.111 144.751 148.854 151.870 154.021 155.412 156.124 156.252 155.950 155.455 155.078
   4  133.846 134.498 135.100 136.034 140.570 145.127 148.868 151.730 153.762 155.007 155.510 155.340 154.645 153.718 153.030
   5  134.038 134.950 136.216 138.120 141.644 145.493 148.903 151.600 153.509 154.610 154.904 154.426 153.298 151.862 150.822
   6  134.021 134.928 136.185 138.076 141.585 145.412 148.791 151.445 153.293 154.304 154.466 153.786 152.370 150.617 149.650
   7  133.795 134.433 135.009 135.907 140.397 144.891 148.544 151.285 153.147 154.150 154.305 153.639 152.273 150.616 149.764
   8  133.611 133.942 133.460 131.674 138.842 144.385 148.356 151.190 153.091 154.143 154.397 153.931 152.921 151.760 151.103
   9  133.774 134.405 134.972 135.859 140.336 144.819 148.466 151.213 153.111 154.214 154.587 154.339 153.669 152.900 152.433
  10  133.979 134.874 136.113 137.981 141.463 145.263 148.618 151.265 153.146 154.278 154.725 154.606 154.122 153.551 153.188
1
  VOLUME BUDGET FOR ENTIRE MODEL AT END OF TIME STEP    9, STRESS PERIOD   2
  ------------------------------------------------------------------------------

     CUMULATIVE VOLUME      L**3       RATES FOR THIS TIME STEP      L**3/T
     ------------------                 ------------------------

           IN:                                      IN:
           ---                                      ---
         STORAGE(SS) =       40871.2779           STORAGE(SS) =       6.3976E-03
         STORAGE(SY) =           0.0000           STORAGE(SY) =           0.0000
               WELLS =           0.0000                 WELLS =           0.0000
       RIVER LEAKAGE =           0.0000         RIVER LEAKAGE =           0.0000
            RECHARGE =     4514118.1218              RECHARGE =      145000.0000
       CONSTANT HEAD =           0.0000         CONSTANT HEAD =           0.0000

            TOTAL IN =     4554989.3997              TOTAL IN =      145000.0064

          OUT:                                     OUT:
          ----                                     ----
         STORAGE(SS) =       1.0733E-02           STORAGE(SS) =       1.0679E-03
         STORAGE(SY) =           0.0000           STORAGE(SY) =           0.0000
               WELLS =     2109229.4381                 WELLS =       70000.0000
       RIVER LEAKAGE =     1151173.1279         RIVER LEAKAGE =       34487.1609
            RECHARGE =           0.0000              RECHARGE =           0.0000
       CONSTANT HEAD =     1294792.7019         CONSTANT HEAD =       40526.7273

           TOTAL OUT =     4555195.2787             TOTAL OUT =      145013.8892

            IN - OUT =        -205.8789              IN - OUT =         -13.8828

 PERCENT DISCREPANCY =          -0.00     PERCENT DISCREPANCY =          -0.01






         TIME SUMMARY AT END OF TIME STEP    9 IN STRESS PERIOD    2
                    SECONDS     MINUTES      HOURS       DAYS        YEARS
                    -----------------------------------------------------------
   TIME STEP LENGTH 4.10958E+05  6849.3      114.16      4.7565     1.30225E-02
 STRESS PERIOD TIME 2.60339E+06  43390.      723.16      30.132     8.24965E-02
         TOTAL TIME 2.68979E+06  44830.      747.16      31.132     8.52344E-02
1
  HEAD IN LAYER   1 AT END OF TIME STEP  10 IN STRESS PERIOD    2
  ---------------------------------------------------------------------------

           1       2       3       4       5       6       7       8       9      10      11      12      13      14      15
 ...........................................................................................................................
   1  130.361 136.002 139.222 142.076 145.780 149.514 152.789 155.490 157.583 159.050 159.929 160.303 160.304 160.114 159.939
   2  130.344 135.629 138.322 140.531 144.968 149.166 152.622 155.366 157.440 158.845 159.616 159.830 159.614 159.178 158.817
   3  130.328 135.251 137.145 137.525 143.916 148.800 152.431 155.184 157.194 158.471 159.029 158.906 158.200 157.148 156.255
   4  130.343 135.601 138.272 140.453 144.858 149.013 152.396 155.022 156.906 157.998 158.253 157.613 156.041 153.678 151.305
   5  130.358 135.950 139.130 141.936 145.581 149.233 152.378 154.868 156.621 157.525 157.449 156.168 153.290 148.097 140.000
   6  130.357 135.933 139.099 141.892 145.520 149.151 152.264 154.706 156.387 157.169 156.858 155.055 150.747 140.000 140.000
   7  130.340 135.551 138.182 140.321 144.679 148.774 152.069 154.561 156.246 157.022 156.718 154.962 150.762 140.000 140.000
   8  130.324 135.171 137.003 137.304 143.632 148.429 151.928 154.485 156.213 157.075 156.995 155.848 153.487 150.093 149.050
   9  130.339 135.530 138.146 140.271 144.618 148.705 151.996 154.504 156.254 157.211 157.365 156.744 155.474 153.980 153.249
  10  130.355 135.892 139.030 141.795 145.398 149.006 152.102 154.548 156.299 157.312 157.601 157.248 156.443 155.538 155.011
1
  HEAD IN LAYER   2 AT END OF TIME STEP  10 IN STRESS PERIOD    2
  ---------------------------------------------------------------------------

           1       2       3       4       5       6       7       8       9      10      11      12      13      14      15
 ...........................................................................................................................
   1  131.876 135.565 138.014 140.412 144.206 148.078 151.471 154.246 156.378 157.871 158.774 159.178 159.217 159.066 158.920
   2  131.768 135.104 136.753 137.541 142.993 147.627 151.277 154.116 156.236 157.672 158.478 158.738 158.588 158.232 157.935
   3  131.668 134.571 134.483 125.955 140.787 147.084 151.056 153.932 155.996 157.314 157.926 157.892 157.330 156.479 155.774
   4  131.757 135.073 136.702 137.466 142.886 147.475 151.053 153.779 155.718 156.865 157.208 156.735 155.478 153.638 151.906
   5  131.854 135.509 137.922 140.274 144.010 147.800 151.064 153.635 155.445 156.419 156.475 155.481 153.240 149.481 144.395
   6  131.847 135.489 137.891 140.230 143.949 147.718 150.951 153.476 155.217 156.081 155.938 154.541 151.313 144.315 143.717
   7  131.735 135.017 136.613 137.336 142.709 147.237 150.727 153.324 155.074 155.931 155.791 154.429 151.292 144.356 143.862
   8  131.634 134.483 134.340 125.745 140.509 146.715 150.555 153.239 155.033 155.963 156.002 155.099 153.229 150.678 149.757
   9  131.726 134.994 136.576 137.286 142.649 147.167 150.653 153.261 155.066 156.076 156.308 155.819 154.764 153.532 152.892
  10  131.829 135.444 137.821 140.135 143.828 147.572 150.784 153.310 155.108 156.164 156.509 156.239 155.547 154.762 154.293
1
  HEAD IN LAYER   3 AT END OF TIME STEP  10 IN STRESS PERIOD    2
  ---------------------------------------------------------------------------

           1       2       3       4       5       6       7       8       9      10      11      12      13      14      15
 ...........................................................................................................................
   1  133.376 135.133 136.818 138.764 142.647 146.657 150.166 153.014 155.184 156.702 157.630 158.064 158.139 158.028 157.910
   2  133.178 134.583 135.199 134.581 141.039 146.103 149.946 152.879 155.044 156.511 157.350 157.658 157.574 157.296 157.061
   3  132.994 133.897 131.846 114.500 137.688 145.385 149.695 152.691 154.809 156.168 156.834 156.889 156.469 155.815 155.297
   4  133.157 134.551 135.149 134.508 140.934 145.952 149.724 152.548 154.542 155.744 156.173 155.866 154.921 153.600 152.502
   5  133.336 135.072 136.726 138.629 142.454 146.381 149.762 152.414 154.280 155.324 155.510 154.801 153.190 150.851 148.747
   6  133.322 135.051 136.694 138.585 142.394 146.299 149.650 152.258 154.059 155.003 155.028 154.032 151.874 148.587 147.396
   7  133.117 134.489 135.058 134.380 140.759 145.715 149.400 152.099 153.914 154.851 154.873 153.901 151.818 148.668 147.686
   8  132.931 133.802 131.705 114.300 137.416 145.018 149.195 152.005 153.865 154.862 155.018 154.356 152.974 151.258 150.457
   9  133.100 134.464 135.022 134.332 140.699 145.644 149.323 152.031 153.891 154.952 155.261 154.904 154.061 153.089 152.539
  10  133.289 135.001 136.624 138.490 142.273 146.151 149.480 152.084 153.929 155.027 155.427 155.240 154.661 153.993 153.581
1
  HEAD IN LAYER   4 AT END OF TIME STEP  10 IN STRESS PERIOD    2
  ---------------------------------------------------------------------------

           1       2       3       4       5       6       7       8       9      10      11      12      13      14      15
 ...........................................................................................................................
   1  133.796 135.064 136.518 138.463 142.169 146.133 149.657 152.528 154.714 156.245 157.185 157.634 157.728 157.635 157.532
   2  133.587 134.554 135.170 135.480 140.823 145.615 149.439 152.393 154.576 156.058 156.914 157.244 157.192 156.953 156.748
   3  133.404 133.984 132.881 124.741 138.527 145.011 149.199 152.207 154.345 155.723 156.415 156.513 156.163 155.603 155.168
   4  133.563 134.520 135.120 135.407 140.719 145.465 149.219 152.066 154.082 155.310 155.782 155.556 154.759 153.670 152.813
   5  133.750 135.000 136.425 138.329 141.977 145.858 149.256 151.934 153.826 154.903 155.153 154.580 153.254 151.447 149.971
   6  133.734 134.978 136.394 138.285 141.917 145.776 149.143 151.779 153.607 154.591 154.696 153.887 152.166 149.784 148.725
   7  133.517 134.456 135.029 135.280 140.546 145.229 148.895 151.619 153.462 154.438 154.538 153.747 152.086 149.817 148.911
   8  133.332 133.884 132.740 124.542 138.257 144.645 148.701 151.525 153.408 154.438 154.652 154.105 152.943 151.554 150.838
   9  133.497 134.429 134.992 135.232 140.485 145.157 148.817 151.548 153.431 154.517 154.864 154.571 153.830 152.978 152.476
  10  133.696 134.926 136.323 138.190 141.796 145.628 148.972 151.601 153.468 154.585 155.013 154.866 154.343 153.732 153.350
1
  HEAD IN LAYER   5 AT END OF TIME STEP  10 IN STRESS PERIOD    2
  ---------------------------------------------------------------------------

           1       2       3       4       5       6       7       8       9      10      11      12      13      14      15
 ...........................................................................................................................
   1  134.088 135.016 136.309 138.254 141.836 145.768 149.303 152.190 154.388 155.927 156.875 157.334 157.441 157.363 157.268
   2  133.872 134.533 135.150 136.106 140.673 145.276 149.087 152.055 154.250 155.742 156.609 156.956 156.927 156.714 156.530
   3  133.689 134.044 133.602 131.870 139.111 144.751 148.854 151.870 154.021 155.412 156.124 156.252 155.950 155.455 155.078
   4  133.846 134.498 135.100 136.034 140.570 145.127 148.868 151.730 153.762 155.007 155.510 155.340 154.645 153.718 153.030
   5  134.038 134.950 136.216 138.120 141.644 145.493 148.903 151.600 153.509 154.610 154.904 154.426 153.298 151.862 150.822
   6  134.021 134.928 136.185 138.076 141.585 145.412 148.791 151.445 153.293 154.304 154.466 153.786 152.370 150.617 149.650
   7  133.795 134.433 135.009 135.907 140.397 144.891 148.544 151.285 153.147 154.150 154.305 153.639 152.273 150.616 149.764
   8  133.611 133.942 133.460 131.673 138.842 144.385 148.356 151.190 153.091 154.143 154.397 153.931 152.921 151.760 151.103
   9  133.774 134.405 134.972 135.859 140.336 144.819 148.466 151.213 153.111 154.214 154.587 154.339 153.669 152.900 152.433
  10  133.979 134.874 136.113 137.981 141.463 145.263 148.618 151.265 153.146 154.278 154.725 154.606 154.122 153.551 153.188
1
  VOLUME BUDGET FOR ENTIRE MODEL AT END OF TIME STEP   10, STRESS PERIOD   2
  ------------------------------------------------------------------------------

     CUMULATIVE VOLUME      L**3       RATES FOR THIS TIME STEP      L**3/T
     ------------------                 ------------------------

           IN:                                      IN:
           ---                                      ---
         STORAGE(SS) =       40871.3224           STORAGE(SS) =       8.5060E-03
         STORAGE(SY) =           0.0000           STORAGE(SY) =           0.0000
               WELLS =           0.0000                 WELLS =           0.0000
       RIVER LEAKAGE =           0.0000         RIVER LEAKAGE =           0.0000
            RECHARGE =     5272774.1478              RECHARGE =      145000.0000
       CONSTANT HEAD =           0.0000         CONSTANT HEAD =           0.0000

            TOTAL IN =     5313645.4702              TOTAL IN =      145000.0085

          OUT:                                     OUT:
          ----                                     ----
         STORAGE(SS) =       1.2329E-02           STORAGE(SS) =       3.0508E-04
         STORAGE(SY) =           0.0000           STORAGE(SY) =           0.0000
               WELLS =     2475477.1748                 WELLS =       70000.0000
       RIVER LEAKAGE =     1331613.4641         RIVER LEAKAGE =       34487.1033
            RECHARGE =           0.0000              RECHARGE =           0.0000
       CONSTANT HEAD =     1506833.0065         CONSTANT HEAD =       40526.7250

           TOTAL OUT =     5313923.6577             TOTAL OUT =      145013.8287

            IN - OUT =        -278.1875              IN - OUT =         -13.8202

 PERCENT DISCREPANCY =          -0.01     PERCENT DISCREPANCY =          -0.01






         TIME SUMMARY AT END OF TIME STEP   10 IN STRESS PERIOD    2
                    SECONDS     MINUTES      HOURS       DAYS        YEARS
                    -----------------------------------------------------------
   TIME STEP LENGTH 4.52054E+05  7534.2      125.57      5.2321     1.43247E-02
 STRESS PERIOD TIME 3.05545E+06  50924.      848.74      35.364     9.68212E-02
         TOTAL TIME 3.14185E+06  52364.      872.74      36.364     9.95591E-02
1
  HEAD IN LAYER   1 AT END OF TIME STEP  11 IN STRESS PERIOD    2
  ---------------------------------------------------------------------------

           1       2       3       4       5       6       7       8       9      10      11      12      13      14      15
 ...........................................................................................................................
   1  130.361 136.002 139.222 142.076 145.780 149.514 152.789 155.490 157.583 159.050 159.929 160.303 160.304 160.114 159.939
   2  130.344 135.629 138.322 140.531 144.968 149.166 152.621 155.366 157.440 158.845 159.616 159.830 159.614 159.178 158.817
   3  130.328 135.251 137.145 137.525 143.916 148.800 152.431 155.184 157.194 158.471 159.029 158.906 158.200 157.148 156.255
   4  130.343 135.601 138.272 140.453 144.858 149.013 152.396 155.022 156.906 157.998 158.253 157.613 156.041 153.678 151.305
   5  130.358 135.950 139.130 141.936 145.581 149.233 152.378 154.868 156.621 157.525 157.449 156.168 153.290 148.097 140.000
   6  130.357 135.933 139.099 141.892 145.520 149.151 152.264 154.706 156.387 157.169 156.858 155.055 150.747 140.000 140.000
   7  130.340 135.551 138.182 140.321 144.679 148.774 152.069 154.561 156.246 157.022 156.718 154.962 150.762 140.000 140.000
   8  130.324 135.171 137.003 137.304 143.632 148.429 151.928 154.485 156.213 157.075 156.995 155.848 153.487 150.093 149.050
   9  130.339 135.530 138.146 140.271 144.618 148.705 151.996 154.504 156.254 157.211 157.365 156.744 155.474 153.980 153.249
  10  130.355 135.892 139.030 141.795 145.398 149.006 152.102 154.548 156.299 157.312 157.601 157.248 156.443 155.538 155.011
1
  HEAD IN LAYER   2 AT END OF TIME STEP  11 IN STRESS PERIOD    2
  ---------------------------------------------------------------------------

           1       2       3       4       5       6       7       8       9      10      11      12      13      14      15
 ...........................................................................................................................
   1  131.876 135.565 138.014 140.412 144.206 148.078 151.471 154.246 156.378 157.871 158.774 159.178 159.217 159.066 158.920
   2  131.768 135.104 136.753 137.541 142.993 147.627 151.277 154.116 156.236 157.672 158.478 158.738 158.588 158.232 157.935
   3  131.668 134.571 134.483 125.955 140.787 147.084 151.056 153.932 155.996 157.314 157.926 157.892 157.330 156.479 155.774
   4  131.757 135.073 136.702 137.466 142.886 147.475 151.053 153.779 155.718 156.865 157.208 156.735 155.478 153.638 151.906
   5  131.854 135.509 137.922 140.274 144.010 147.800 151.064 153.635 155.445 156.419 156.475 155.481 153.240 149.481 144.395
   6  131.847 135.489 137.891 140.230 143.949 147.718 150.951 153.476 155.217 156.081 155.938 154.541 151.313 144.315 143.717
   7  131.735 135.017 136.612 137.336 142.709 147.237 150.727 153.324 155.074 155.931 155.791 154.429 151.292 144.356 143.862
   8  131.634 134.483 134.340 125.745 140.509 146.715 150.555 153.239 155.033 155.963 156.002 155.099 153.229 150.678 149.757
   9  131.726 134.994 136.576 137.286 142.649 147.167 150.653 153.261 155.066 156.076 156.308 155.819 154.764 153.532 152.892
  10  131.829 135.444 137.821 140.135 143.828 147.572 150.784 153.310 155.108 156.164 156.509 156.239 155.547 154.762 154.293
1
  HEAD IN LAYER   3 AT END OF TIME STEP  11 IN STRESS PERIOD    2
  ---------------------------------------------------------------------------

           1       2       3       4       5       6       7       8       9      10      11      12      13      14      15
 ...........................................................................................................................
   1  133.376 135.133 136.818 138.764 142.647 146.657 150.166 153.014 155.184 156.702 157.630 158.064 158.139 158.028 157.910
   2  133.178 134.583 135.199 134.581 141.039 146.103 149.946 152.879 155.044 156.511 157.350 157.658 157.574 157.296 157.061
   3  132.994 133.897 131.846 114.500 137.688 145.385 149.695 152.691 154.809 156.168 156.834 156.889 156.469 155.815 155.297
   4  133.157 134.551 135.149 134.508 140.934 145.952 149.724 152.548 154.542 155.744 156.173 155.866 154.921 153.600 152.502
   5  133.336 135.072 136.726 138.629 142.454 146.381 149.762 152.414 154.280 155.324 155.510 154.801 153.190 150.851 148.747
   6  133.322 135.051 136.694 138.585 142.394 146.299 149.650 152.258 154.059 155.003 155.028 154.032 151.874 148.587 147.396
   7  133.117 134.489 135.058 134.380 140.759 145.715 149.400 152.099 153.914 154.851 154.873 153.901 151.818 148.668 147.686
   8  132.931 133.802 131.705 114.300 137.416 145.018 149.195 152.005 153.865 154.862 155.018 154.356 152.974 151.258 150.457
   9  133.100 134.464 135.022 134.332 140.699 145.644 149.323 152.031 153.891 154.952 155.261 154.904 154.061 153.089 152.539
  10  133.289 135.001 136.624 138.490 142.273 146.151 149.480 152.084 153.929 155.027 155.427 155.240 154.661 153.993 153.581
1
  HEAD IN LAYER   4 AT END OF TIME STEP  11 IN STRESS PERIOD    2
  ---------------------------------------------------------------------------

           1       2       3       4       5       6       7       8       9      10      11      12      13      14      15
 ...........................................................................................................................
   1  133.796 135.064 136.518 138.463 142.169 146.133 149.657 152.528 154.714 156.245 157.185 157.634 157.728 157.635 157.532
   2  133.587 134.554 135.170 135.480 140.823 145.615 149.439 152.393 154.576 156.058 156.914 157.244 157.192 156.953 156.748
   3  133.404 133.984 132.881 124.741 138.527 145.011 149.199 152.207 154.344 155.723 156.415 156.513 156.163 155.603 155.168
   4  133.563 134.520 135.120 135.407 140.719 145.465 149.219 152.066 154.082 155.310 155.782 155.556 154.759 153.670 152.813
   5  133.750 135.000 136.425 138.329 141.977 145.858 149.256 151.934 153.826 154.903 155.153 154.580 153.254 151.447 149.971
   6  133.734 134.978 136.394 138.285 141.917 145.776 149.143 151.779 153.607 154.591 154.696 153.887 152.166 149.784 148.725
   7  133.517 134.456 135.029 135.280 140.545 145.229 148.895 151.619 153.462 154.438 154.538 153.747 152.086 149.817 148.911
   8  133.332 133.884 132.740 124.542 138.257 144.645 148.700 151.525 153.408 154.438 154.652 154.105 152.943 151.554 150.838
   9  133.497 134.429 134.992 135.232 140.485 145.157 148.817 151.548 153.431 154.517 154.864 154.571 153.830 152.978 152.476
  10  133.696 134.926 136.323 138.190 141.796 145.628 148.972 151.601 153.467 154.585 155.013 154.866 154.343 153.732 153.350
1
  HEAD IN LAYER   5 AT END OF TIME STEP  11 IN STRESS PERIOD    2
  ---------------------------------------------------------------------------

           1       2       3       4       5       6       7       8       9      10      11      12      13      14      15
 ...........................................................................................................................
   1  134.088 135.016 136.309 138.254 141.836 145.768 149.303 152.190 154.388 155.927 156.875 157.334 157.441 157.363 157.268
   2  133.872 134.533 135.150 136.106 140.673 145.276 149.087 152.055 154.250 155.742 156.609 156.956 156.927 156.714 156.530
   3  133.689 134.044 133.602 131.870 139.111 144.751 148.854 151.870 154.021 155.412 156.124 156.252 155.950 155.455 155.078
   4  133.846 134.498 135.100 136.034 140.570 145.127 148.867 151.730 153.762 155.007 155.510 155.340 154.645 153.718 153.030
   5  134.038 134.950 136.216 138.120 141.644 145.493 148.903 151.600 153.509 154.610 154.904 154.426 153.298 151.861 150.822
   6  134.021 134.928 136.185 138.076 141.585 145.412 148.791 151.445 153.293 154.304 154.465 153.786 152.370 150.617 149.650
   7  133.795 134.433 135.009 135.907 140.397 144.891 148.544 151.285 153.147 154.150 154.305 153.639 152.273 150.616 149.764
   8  133.611 133.942 133.460 131.673 138.842 144.385 148.356 151.190 153.091 154.143 154.397 153.931 152.921 151.760 151.103
   9  133.774 134.405 134.972 135.859 140.336 144.819 148.466 151.213 153.111 154.214 154.587 154.339 153.669 152.900 152.433
  10  133.979 134.874 136.113 137.981 141.463 145.263 148.618 151.265 153.146 154.278 154.725 154.606 154.122 153.551 153.188
1
  VOLUME BUDGET FOR ENTIRE MODEL AT END OF TIME STEP   11, STRESS PERIOD   2
  ------------------------------------------------------------------------------

     CUMULATIVE VOLUME      L**3       RATES FOR THIS TIME STEP      L**3/T
     ------------------                 ------------------------

           IN:                                      IN:
           ---                                      ---
         STORAGE(SS) =       40871.3565           STORAGE(SS) =       5.9113E-03
         STORAGE(SY) =           0.0000           STORAGE(SY) =           0.0000
               WELLS =           0.0000                 WELLS =           0.0000
       RIVER LEAKAGE =           0.0000         RIVER LEAKAGE =           0.0000
            RECHARGE =     6107295.7763              RECHARGE =      145000.0000
       CONSTANT HEAD =           0.0000         CONSTANT HEAD =           0.0000

            TOTAL IN =     6148167.1328              TOTAL IN =      145000.0059

          OUT:                                     OUT:
          ----                                     ----
         STORAGE(SS) =       1.6284E-02           STORAGE(SS) =       6.8716E-04
         STORAGE(SY) =           0.0000           STORAGE(SY) =           0.0000
               WELLS =     2878349.6851                 WELLS =       70000.0000
       RIVER LEAKAGE =     1530097.7244         RIVER LEAKAGE =       34487.0843
            RECHARGE =           0.0000              RECHARGE =           0.0000
       CONSTANT HEAD =     1740077.1615         CONSTANT HEAD =       40526.6938

           TOTAL OUT =     6148524.5874             TOTAL OUT =      145013.7787

            IN - OUT =        -357.4546              IN - OUT =         -13.7728

 PERCENT DISCREPANCY =          -0.01     PERCENT DISCREPANCY =          -0.01






         TIME SUMMARY AT END OF TIME STEP   11 IN STRESS PERIOD    2
                    SECONDS     MINUTES      HOURS       DAYS        YEARS
                    -----------------------------------------------------------
   TIME STEP LENGTH 4.97260E+05  8287.7      138.13      5.7553     1.57572E-02
 STRESS PERIOD TIME 3.55271E+06  59212.      986.86      41.119     0.11258    
         TOTAL TIME 3.63911E+06  60652.      1010.9      42.119     0.11532    
1
  HEAD IN LAYER   1 AT END OF TIME STEP  12 IN STRESS PERIOD    2
  ---------------------------------------------------------------------------

           1       2       3       4       5       6       7       8       9      10      11      12      13      14      15
 ...........................................................................................................................
   1  130.361 136.002 139.222 142.076 145.780 149.514 152.789 155.490 157.583 159.050 159.929 160.303 160.304 160.114 159.939
   2  130.344 135.629 138.322 140.531 144.968 149.166 152.621 155.366 157.440 158.845 159.616 159.830 159.614 159.178 158.817
   3  130.328 135.251 137.145 137.525 143.916 148.800 152.431 155.184 157.194 158.471 159.029 158.906 158.200 157.148 156.255
   4  130.343 135.601 138.272 140.453 144.858 149.013 152.396 155.022 156.905 157.998 158.253 157.613 156.041 153.678 151.305
   5  130.358 135.950 139.130 141.936 145.581 149.233 152.378 154.868 156.621 157.525 157.449 156.168 153.290 148.097 140.000
   6  130.357 135.933 139.099 141.892 145.520 149.151 152.264 154.706 156.387 157.169 156.858 155.055 150.747 140.000 140.000
   7  130.340 135.551 138.182 140.321 144.679 148.774 152.068 154.561 156.246 157.022 156.718 154.962 150.762 140.000 140.000
   8  130.324 135.171 137.003 137.304 143.632 148.429 151.928 154.485 156.213 157.075 156.995 155.848 153.487 150.093 149.050
   9  130.339 135.530 138.146 140.271 144.618 148.705 151.996 154.504 156.254 157.211 157.365 156.744 155.474 153.980 153.249
  10  130.355 135.892 139.030 141.795 145.398 149.006 152.102 154.548 156.299 157.312 157.601 157.248 156.442 155.538 155.011
1
  HEAD IN LAYER   2 AT END OF TIME STEP  12 IN STRESS PERIOD    2
  ---------------------------------------------------------------------------

           1       2       3       4       5       6       7       8       9      10      11      12      13      14      15
 ...........................................................................................................................
   1  131.876 135.565 138.014 140.412 144.206 148.078 151.471 154.246 156.378 157.871 158.774 159.178 159.216 159.066 158.920
   2  131.768 135.104 136.753 137.541 142.993 147.627 151.277 154.116 156.236 157.672 158.478 158.738 158.588 158.232 157.935
   3  131.668 134.571 134.483 125.955 140.787 147.084 151.056 153.932 155.996 157.314 157.926 157.892 157.330 156.479 155.774
   4  131.757 135.073 136.702 137.466 142.886 147.475 151.053 153.779 155.718 156.865 157.208 156.735 155.478 153.638 151.906
   5  131.854 135.509 137.922 140.274 144.010 147.800 151.064 153.635 155.445 156.419 156.475 155.481 153.240 149.481 144.395
   6  131.847 135.489 137.891 140.230 143.949 147.718 150.951 153.476 155.217 156.081 155.938 154.541 151.313 144.315 143.717
   7  131.735 135.017 136.612 137.336 142.709 147.237 150.727 153.324 155.074 155.931 155.791 154.429 151.292 144.356 143.862
   8  131.634 134.483 134.340 125.745 140.509 146.715 150.555 153.239 155.033 155.963 156.002 155.099 153.229 150.678 149.757
   9  131.726 134.994 136.576 137.286 142.649 147.167 150.653 153.261 155.066 156.076 156.308 155.819 154.764 153.532 152.892
  10  131.829 135.444 137.821 140.135 143.828 147.572 150.784 153.310 155.108 156.164 156.509 156.239 155.547 154.762 154.293
1
  HEAD IN LAYER   3 AT END OF TIME STEP  12 IN STRESS PERIOD    2
  ---------------------------------------------------------------------------

           1       2       3       4       5       6       7       8       9      10      11      12      13      14      15
 ...........................................................................................................................
   1  133.376 135.133 136.818 138.764 142.647 146.657 150.166 153.014 155.184 156.702 157.630 158.064 158.139 158.028 157.910
   2  133.178 134.583 135.199 134.581 141.039 146.103 149.946 152.879 155.044 156.511 157.350 157.658 157.574 157.296 157.061
   3  132.994 133.897 131.846 114.500 137.688 145.385 149.695 152.691 154.809 156.168 156.834 156.889 156.469 155.815 155.297
   4  133.157 134.551 135.149 134.508 140.934 145.952 149.724 152.548 154.542 155.744 156.173 155.866 154.921 153.600 152.502
   5  133.336 135.072 136.726 138.629 142.454 146.381 149.762 152.414 154.280 155.324 155.510 154.801 153.190 150.851 148.747
   6  133.322 135.050 136.694 138.585 142.394 146.299 149.650 152.258 154.059 155.003 155.028 154.031 151.874 148.587 147.396
   7  133.117 134.489 135.058 134.380 140.759 145.715 149.400 152.099 153.914 154.851 154.873 153.901 151.818 148.668 147.686
   8  132.931 133.802 131.705 114.300 137.416 145.018 149.195 152.005 153.864 154.862 155.018 154.356 152.974 151.258 150.457
   9  133.100 134.464 135.022 134.332 140.699 145.644 149.323 152.031 153.891 154.952 155.261 154.904 154.061 153.089 152.539
  10  133.289 135.001 136.624 138.490 142.273 146.151 149.480 152.084 153.929 155.027 155.427 155.240 154.661 153.993 153.581
1
  HEAD IN LAYER   4 AT END OF TIME STEP  12 IN STRESS PERIOD    2
  ---------------------------------------------------------------------------

           1       2       3       4       5       6       7       8       9      10      11      12      13      14      15
 ...........................................................................................................................
   1  133.796 135.064 136.518 138.463 142.169 146.133 149.657 152.528 154.714 156.245 157.185 157.633 157.728 157.635 157.532
   2  133.587 134.554 135.170 135.480 140.823 145.615 149.439 152.393 154.576 156.058 156.914 157.244 157.192 156.953 156.748
   3  133.404 133.984 132.881 124.741 138.527 145.011 149.199 152.207 154.344 155.723 156.415 156.513 156.163 155.603 155.168
   4  133.563 134.520 135.120 135.407 140.719 145.465 149.219 152.066 154.082 155.310 155.782 155.556 154.758 153.670 152.813
   5  133.750 135.000 136.425 138.329 141.977 145.858 149.256 151.934 153.826 154.903 155.153 154.580 153.254 151.447 149.971
   6  133.734 134.978 136.394 138.285 141.917 145.776 149.143 151.779 153.607 154.591 154.696 153.887 152.166 149.784 148.725
   7  133.517 134.456 135.029 135.280 140.545 145.229 148.895 151.619 153.462 154.438 154.538 153.747 152.086 149.817 148.911
   8  133.332 133.884 132.740 124.542 138.257 144.645 148.700 151.525 153.408 154.438 154.652 154.105 152.943 151.554 150.838
   9  133.497 134.429 134.992 135.232 140.485 145.157 148.817 151.548 153.431 154.517 154.864 154.571 153.830 152.978 152.476
  10  133.696 134.926 136.323 138.190 141.796 145.628 148.972 151.601 153.467 154.585 155.013 154.866 154.343 153.732 153.350
1
  HEAD IN LAYER   5 AT END OF TIME STEP  12 IN STRESS PERIOD    2
  ---------------------------------------------------------------------------

           1       2       3       4       5       6       7       8       9      10      11      12      13      14      15
 ...........................................................................................................................
   1  134.088 135.016 136.309 138.254 141.835 145.768 149.303 152.190 154.388 155.927 156.875 157.334 157.441 157.363 157.268
   2  133.872 134.533 135.150 136.106 140.673 145.276 149.087 152.055 154.250 155.742 156.609 156.956 156.927 156.714 156.530
   3  133.689 134.044 133.602 131.870 139.110 144.751 148.854 151.870 154.021 155.412 156.123 156.252 155.950 155.455 155.078
   4  133.846 134.498 135.100 136.034 140.570 145.127 148.867 151.730 153.762 155.007 155.510 155.340 154.645 153.718 153.030
   5  134.038 134.950 136.216 138.120 141.644 145.493 148.903 151.600 153.509 154.610 154.904 154.426 153.298 151.861 150.822
   6  134.021 134.928 136.185 138.076 141.585 145.412 148.791 151.445 153.293 154.304 154.465 153.786 152.370 150.617 149.650
   7  133.795 134.433 135.009 135.907 140.397 144.891 148.544 151.285 153.147 154.150 154.305 153.639 152.273 150.616 149.764
   8  133.611 133.942 133.460 131.673 138.842 144.385 148.356 151.190 153.091 154.143 154.397 153.930 152.921 151.760 151.103
   9  133.774 134.405 134.972 135.859 140.336 144.819 148.466 151.213 153.111 154.214 154.587 154.339 153.669 152.900 152.433
  10  133.979 134.874 136.113 137.981 141.463 145.263 148.618 151.265 153.146 154.278 154.725 154.606 154.122 153.551 153.188
1
  VOLUME BUDGET FOR ENTIRE MODEL AT END OF TIME STEP   12, STRESS PERIOD   2
  ------------------------------------------------------------------------------

     CUMULATIVE VOLUME      L**3       RATES FOR THIS TIME STEP      L**3/T
     ------------------                 ------------------------

           IN:                                      IN:
           ---                                      ---
         STORAGE(SS) =       40871.3951           STORAGE(SS) =       6.1078E-03
         STORAGE(SY) =           0.0000           STORAGE(SY) =           0.0000
               WELLS =           0.0000                 WELLS =           0.0000
       RIVER LEAKAGE =           0.0000         RIVER LEAKAGE =           0.0000
            RECHARGE =     7025269.5677              RECHARGE =      145000.0000
       CONSTANT HEAD =           0.0000         CONSTANT HEAD =           0.0000

            TOTAL IN =     7066140.9628              TOTAL IN =      145000.0061

          OUT:                                     OUT:
          ----                                     ----
         STORAGE(SS) =       1.8607E-02           STORAGE(SS) =       3.6691E-04
         STORAGE(SY) =           0.0000           STORAGE(SY) =           0.0000
               WELLS =     3321509.4465                 WELLS =       70000.0000
       RIVER LEAKAGE =     1748430.1342         RIVER LEAKAGE =       34487.0406
            RECHARGE =           0.0000              RECHARGE =           0.0000
       CONSTANT HEAD =     1996645.6912         CONSTANT HEAD =       40526.6873

           TOTAL OUT =     7066585.2905             TOTAL OUT =      145013.7283

            IN - OUT =        -444.3276              IN - OUT =         -13.7222

 PERCENT DISCREPANCY =          -0.01     PERCENT DISCREPANCY =          -0.01






         TIME SUMMARY AT END OF TIME STEP   12 IN STRESS PERIOD    2
                    SECONDS     MINUTES      HOURS       DAYS        YEARS
                    -----------------------------------------------------------
   TIME STEP LENGTH 5.46986E+05  9116.4      151.94      6.3309     1.73329E-02
 STRESS PERIOD TIME 4.09969E+06  68328.      1138.8      47.450     0.12991    
         TOTAL TIME 4.18609E+06  69768.      1162.8      48.450     0.13265    
1
  HEAD IN LAYER   1 AT END OF TIME STEP  13 IN STRESS PERIOD    2
  ---------------------------------------------------------------------------

           1       2       3       4       5       6       7       8       9      10      11      12      13      14      15
 ...........................................................................................................................
   1  130.361 136.002 139.222 142.076 145.780 149.514 152.789 155.490 157.583 159.050 159.929 160.303 160.304 160.114 159.939
   2  130.344 135.629 138.322 140.531 144.968 149.166 152.621 155.366 157.440 158.845 159.616 159.830 159.613 159.178 158.817
   3  130.328 135.251 137.145 137.525 143.916 148.800 152.431 155.184 157.194 158.471 159.029 158.906 158.200 157.148 156.255
   4  130.343 135.601 138.272 140.453 144.858 149.013 152.396 155.022 156.905 157.998 158.253 157.613 156.041 153.678 151.305
   5  130.358 135.950 139.130 141.936 145.581 149.233 152.378 154.868 156.621 157.525 157.449 156.168 153.290 148.097 140.000
   6  130.357 135.933 139.099 141.892 145.520 149.151 152.264 154.706 156.386 157.169 156.858 155.055 150.747 140.000 140.000
   7  130.340 135.551 138.182 140.321 144.679 148.774 152.068 154.561 156.246 157.022 156.718 154.962 150.762 140.000 140.000
   8  130.324 135.171 137.003 137.304 143.632 148.429 151.928 154.485 156.213 157.075 156.995 155.848 153.487 150.093 149.050
   9  130.339 135.530 138.146 140.271 144.618 148.705 151.996 154.504 156.254 157.211 157.365 156.744 155.474 153.980 153.249
  10  130.355 135.892 139.030 141.795 145.398 149.006 152.102 154.548 156.299 157.312 157.601 157.248 156.442 155.538 155.011
1
  HEAD IN LAYER   2 AT END OF TIME STEP  13 IN STRESS PERIOD    2
  ---------------------------------------------------------------------------

           1       2       3       4       5       6       7       8       9      10      11      12      13      14      15
 ...........................................................................................................................
   1  131.876 135.565 138.014 140.412 144.206 148.078 151.471 154.246 156.378 157.871 158.774 159.178 159.216 159.066 158.920
   2  131.768 135.104 136.753 137.541 142.993 147.627 151.277 154.116 156.236 157.672 158.478 158.738 158.588 158.232 157.935
   3  131.668 134.571 134.483 125.955 140.787 147.084 151.056 153.932 155.996 157.314 157.926 157.892 157.330 156.479 155.774
   4  131.757 135.073 136.702 137.466 142.886 147.475 151.053 153.779 155.718 156.865 157.208 156.735 155.478 153.638 151.906
   5  131.854 135.509 137.922 140.274 144.010 147.800 151.064 153.635 155.445 156.419 156.475 155.481 153.240 149.481 144.395
   6  131.847 135.489 137.891 140.230 143.949 147.718 150.951 153.476 155.217 156.081 155.938 154.541 151.313 144.315 143.717
   7  131.735 135.017 136.612 137.336 142.709 147.237 150.727 153.324 155.074 155.931 155.791 154.429 151.292 144.356 143.862
   8  131.634 134.483 134.340 125.745 140.509 146.715 150.555 153.239 155.033 155.963 156.002 155.099 153.229 150.678 149.757
   9  131.726 134.994 136.576 137.286 142.649 147.167 150.653 153.261 155.066 156.076 156.308 155.819 154.764 153.532 152.892
  10  131.829 135.444 137.821 140.135 143.828 147.572 150.784 153.310 155.108 156.164 156.509 156.239 155.547 154.762 154.293
1
  HEAD IN LAYER   3 AT END OF TIME STEP  13 IN STRESS PERIOD    2
  ---------------------------------------------------------------------------

           1       2       3       4       5       6       7       8       9      10      11      12      13      14      15
 ...........................................................................................................................
   1  133.376 135.133 136.818 138.764 142.647 146.657 150.166 153.014 155.184 156.702 157.630 158.064 158.139 158.028 157.910
   2  133.178 134.583 135.199 134.581 141.039 146.103 149.946 152.879 155.044 156.511 157.350 157.658 157.574 157.296 157.061
   3  132.994 133.897 131.846 114.500 137.688 145.385 149.695 152.691 154.809 156.168 156.834 156.889 156.469 155.815 155.297
   4  133.157 134.550 135.149 134.508 140.934 145.952 149.724 152.548 154.542 155.744 156.173 155.866 154.921 153.600 152.502
   5  133.336 135.072 136.726 138.629 142.454 146.381 149.762 152.414 154.280 155.324 155.510 154.801 153.190 150.851 148.747
   6  133.322 135.050 136.694 138.585 142.394 146.299 149.650 152.258 154.059 155.003 155.028 154.031 151.874 148.587 147.396
   7  133.117 134.489 135.058 134.380 140.759 145.715 149.400 152.099 153.914 154.851 154.873 153.901 151.818 148.668 147.686
   8  132.931 133.802 131.705 114.300 137.416 145.018 149.195 152.005 153.864 154.862 155.018 154.356 152.973 151.258 150.457
   9  133.100 134.464 135.022 134.332 140.699 145.644 149.323 152.031 153.891 154.952 155.261 154.904 154.061 153.089 152.539
  10  133.289 135.001 136.624 138.490 142.273 146.151 149.480 152.084 153.929 155.027 155.427 155.240 154.661 153.993 153.581
1
  HEAD IN LAYER   4 AT END OF TIME STEP  13 IN STRESS PERIOD    2
  ---------------------------------------------------------------------------

           1       2       3       4       5       6       7       8       9      10      11      12      13      14      15
 ...........................................................................................................................
   1  133.796 135.064 136.518 138.463 142.169 146.133 149.657 152.528 154.714 156.245 157.185 157.633 157.728 157.635 157.532
   2  133.587 134.554 135.170 135.480 140.823 145.615 149.439 152.393 154.576 156.058 156.914 157.244 157.192 156.953 156.748
   3  133.404 133.984 132.881 124.741 138.527 145.011 149.199 152.207 154.344 155.723 156.415 156.513 156.163 155.603 155.168
   4  133.563 134.520 135.120 135.407 140.719 145.465 149.219 152.066 154.082 155.310 155.782 155.556 154.758 153.670 152.813
   5  133.750 135.000 136.425 138.329 141.977 145.858 149.256 151.934 153.826 154.903 155.153 154.580 153.254 151.447 149.971
   6  133.734 134.978 136.394 138.285 141.917 145.776 149.143 151.779 153.607 154.591 154.696 153.887 152.166 149.784 148.725
   7  133.517 134.456 135.029 135.280 140.545 145.229 148.895 151.619 153.462 154.438 154.538 153.747 152.086 149.817 148.911
   8  133.332 133.884 132.740 124.542 138.257 144.645 148.700 151.525 153.408 154.438 154.652 154.105 152.943 151.554 150.838
   9  133.497 134.429 134.992 135.232 140.485 145.157 148.817 151.548 153.431 154.517 154.864 154.571 153.830 152.977 152.476
  10  133.696 134.926 136.323 138.190 141.796 145.628 148.972 151.601 153.467 154.585 155.013 154.866 154.343 153.732 153.350
1
  HEAD IN LAYER   5 AT END OF TIME STEP  13 IN STRESS PERIOD    2
  ---------------------------------------------------------------------------

           1       2       3       4       5       6       7       8       9      10      11      12      13      14      15
 ...........................................................................................................................
   1  134.088 135.016 136.309 138.254 141.835 145.768 149.303 152.190 154.388 155.927 156.875 157.334 157.441 157.363 157.268
   2  133.872 134.533 135.150 136.106 140.673 145.276 149.087 152.055 154.250 155.742 156.609 156.956 156.927 156.714 156.530
   3  133.689 134.044 133.602 131.870 139.110 144.751 148.854 151.870 154.021 155.412 156.123 156.252 155.950 155.455 155.078
   4  133.846 134.498 135.100 136.034 140.570 145.127 148.867 151.730 153.762 155.007 155.510 155.340 154.645 153.718 153.030
   5  134.038 134.950 136.216 138.120 141.644 145.493 148.903 151.600 153.509 154.610 154.904 154.426 153.298 151.861 150.822
   6  134.021 134.928 136.185 138.076 141.585 145.412 148.791 151.445 153.293 154.304 154.465 153.786 152.370 150.617 149.650
   7  133.795 134.433 135.009 135.907 140.397 144.891 148.544 151.285 153.147 154.150 154.305 153.639 152.273 150.616 149.764
   8  133.611 133.942 133.460 131.673 138.842 144.385 148.356 151.190 153.091 154.143 154.397 153.930 152.921 151.760 151.103
   9  133.774 134.405 134.972 135.859 140.336 144.819 148.466 151.213 153.111 154.214 154.587 154.339 153.669 152.900 152.433
  10  133.979 134.874 136.113 137.981 141.463 145.263 148.618 151.265 153.146 154.278 154.725 154.606 154.122 153.551 153.188
1
  VOLUME BUDGET FOR ENTIRE MODEL AT END OF TIME STEP   13, STRESS PERIOD   2
  ------------------------------------------------------------------------------

     CUMULATIVE VOLUME      L**3       RATES FOR THIS TIME STEP      L**3/T
     ------------------                 ------------------------

           IN:                                      IN:
           ---                                      ---
         STORAGE(SS) =       40871.4297           STORAGE(SS) =       4.9628E-03
         STORAGE(SY) =           0.0000           STORAGE(SY) =           0.0000
               WELLS =           0.0000                 WELLS =           0.0000
       RIVER LEAKAGE =           0.0000         RIVER LEAKAGE =           0.0000
            RECHARGE =     8035040.7383              RECHARGE =      145000.0000
       CONSTANT HEAD =           0.0000         CONSTANT HEAD =           0.0000

            TOTAL IN =     8075912.1680              TOTAL IN =      145000.0050

          OUT:                                     OUT:
          ----                                     ----
         STORAGE(SS) =       2.1969E-02           STORAGE(SS) =       4.8277E-04
         STORAGE(SY) =           0.0000           STORAGE(SY) =           0.0000
               WELLS =     3808985.1840                 WELLS =       70000.0000
       RIVER LEAKAGE =     1988595.6419         RIVER LEAKAGE =       34487.0201
            RECHARGE =           0.0000              RECHARGE =           0.0000
       CONSTANT HEAD =     2278870.8582         CONSTANT HEAD =       40526.6563

           TOTAL OUT =     8076451.7061             TOTAL OUT =      145013.6769

            IN - OUT =        -539.5381              IN - OUT =         -13.6719

 PERCENT DISCREPANCY =          -0.01     PERCENT DISCREPANCY =          -0.01






         TIME SUMMARY AT END OF TIME STEP   13 IN STRESS PERIOD    2
                    SECONDS     MINUTES      HOURS       DAYS        YEARS
                    -----------------------------------------------------------
   TIME STEP LENGTH 6.01684E+05  10028.      167.13      6.9639     1.90662E-02
 STRESS PERIOD TIME 4.70138E+06  78356.      1305.9      54.414     0.14898    
         TOTAL TIME 4.78778E+06  79796.      1329.9      55.414     0.15172    
1
  HEAD IN LAYER   1 AT END OF TIME STEP  14 IN STRESS PERIOD    2
  ---------------------------------------------------------------------------

           1       2       3       4       5       6       7       8       9      10      11      12      13      14      15
 ...........................................................................................................................
   1  130.361 136.002 139.222 142.076 145.780 149.514 152.789 155.490 157.583 159.050 159.929 160.303 160.304 160.114 159.939
   2  130.344 135.629 138.322 140.531 144.968 149.166 152.621 155.366 157.440 158.845 159.616 159.830 159.613 159.178 158.817
   3  130.328 135.251 137.145 137.525 143.916 148.800 152.431 155.184 157.194 158.471 159.029 158.906 158.200 157.148 156.255
   4  130.343 135.601 138.272 140.453 144.858 149.013 152.396 155.022 156.905 157.998 158.253 157.613 156.041 153.678 151.305
   5  130.358 135.950 139.130 141.936 145.581 149.233 152.378 154.868 156.621 157.525 157.449 156.168 153.290 148.097 140.000
   6  130.357 135.933 139.099 141.892 145.520 149.151 152.264 154.706 156.386 157.169 156.858 155.055 150.747 140.000 140.000
   7  130.340 135.551 138.182 140.321 144.679 148.774 152.068 154.561 156.246 157.022 156.718 154.962 150.762 140.000 140.000
   8  130.324 135.171 137.003 137.304 143.632 148.429 151.928 154.485 156.213 157.075 156.995 155.848 153.487 150.093 149.050
   9  130.339 135.530 138.146 140.271 144.618 148.705 151.996 154.504 156.254 157.211 157.365 156.744 155.474 153.980 153.249
  10  130.355 135.892 139.030 141.795 145.398 149.006 152.102 154.548 156.299 157.312 157.601 157.248 156.442 155.538 155.011
1
  HEAD IN LAYER   2 AT END OF TIME STEP  14 IN STRESS PERIOD    2
  ---------------------------------------------------------------------------

           1       2       3       4       5       6       7       8       9      10      11      12      13      14      15
 ...........................................................................................................................
   1  131.876 135.565 138.014 140.412 144.206 148.078 151.471 154.246 156.378 157.870 158.774 159.178 159.216 159.066 158.920
   2  131.768 135.104 136.753 137.541 142.993 147.627 151.277 154.116 156.236 157.672 158.478 158.738 158.588 158.232 157.935
   3  131.668 134.571 134.483 125.955 140.787 147.084 151.056 153.932 155.996 157.314 157.926 157.892 157.330 156.479 155.774
   4  131.757 135.073 136.702 137.466 142.886 147.475 151.053 153.779 155.718 156.865 157.208 156.735 155.478 153.638 151.906
   5  131.854 135.509 137.922 140.274 144.010 147.800 151.064 153.635 155.445 156.419 156.475 155.481 153.240 149.481 144.395
   6  131.847 135.489 137.891 140.230 143.949 147.718 150.951 153.476 155.217 156.081 155.938 154.541 151.313 144.315 143.717
   7  131.735 135.017 136.612 137.336 142.709 147.237 150.727 153.324 155.074 155.931 155.791 154.429 151.292 144.356 143.862
   8  131.634 134.483 134.340 125.745 140.509 146.715 150.555 153.239 155.033 155.963 156.002 155.099 153.229 150.678 149.757
   9  131.726 134.994 136.576 137.286 142.649 147.167 150.653 153.261 155.066 156.076 156.308 155.819 154.764 153.532 152.892
  10  131.829 135.444 137.821 140.135 143.828 147.572 150.784 153.310 155.108 156.164 156.509 156.239 155.547 154.762 154.293
1
  HEAD IN LAYER   3 AT END OF TIME STEP  14 IN STRESS PERIOD    2
  ---------------------------------------------------------------------------

           1       2       3       4       5       6       7       8       9      10      11      12      13      14      15
 ...........................................................................................................................
   1  133.376 135.133 136.818 138.764 142.647 146.657 150.166 153.014 155.184 156.702 157.630 158.064 158.139 158.028 157.910
   2  133.178 134.583 135.199 134.581 141.039 146.103 149.946 152.879 155.044 156.511 157.350 157.658 157.574 157.296 157.061
   3  132.994 133.897 131.846 114.500 137.688 145.385 149.695 152.691 154.809 156.168 156.834 156.889 156.469 155.815 155.297
   4  133.157 134.550 135.149 134.508 140.934 145.952 149.724 152.548 154.542 155.744 156.173 155.866 154.921 153.600 152.502
   5  133.336 135.072 136.726 138.629 142.454 146.381 149.762 152.414 154.280 155.324 155.510 154.801 153.190 150.851 148.747
   6  133.322 135.050 136.694 138.585 142.394 146.299 149.650 152.257 154.059 155.003 155.028 154.031 151.874 148.587 147.396
   7  133.117 134.489 135.058 134.380 140.759 145.715 149.400 152.099 153.914 154.851 154.873 153.901 151.818 148.668 147.686
   8  132.931 133.802 131.705 114.300 137.416 145.018 149.195 152.005 153.864 154.862 155.018 154.356 152.973 151.258 150.457
   9  133.100 134.464 135.022 134.332 140.699 145.644 149.323 152.031 153.891 154.952 155.261 154.904 154.061 153.089 152.539
  10  133.289 135.001 136.624 138.490 142.273 146.151 149.480 152.084 153.929 155.027 155.427 155.240 154.661 153.993 153.581
1
  HEAD IN LAYER   4 AT END OF TIME STEP  14 IN STRESS PERIOD    2
  ---------------------------------------------------------------------------

           1       2       3       4       5       6       7       8       9      10      11      12      13      14      15
 ...........................................................................................................................
   1  133.796 135.064 136.518 138.463 142.169 146.133 149.657 152.528 154.714 156.245 157.185 157.633 157.728 157.635 157.532
   2  133.587 134.554 135.170 135.480 140.823 145.615 149.439 152.393 154.576 156.058 156.914 157.244 157.192 156.953 156.748
   3  133.404 133.984 132.881 124.741 138.527 145.011 149.199 152.207 154.344 155.723 156.415 156.513 156.163 155.603 155.168
   4  133.563 134.520 135.120 135.407 140.719 145.465 149.219 152.066 154.082 155.310 155.782 155.556 154.758 153.670 152.813
   5  133.750 135.000 136.425 138.329 141.977 145.858 149.256 151.934 153.826 154.903 155.153 154.580 153.254 151.447 149.971
   6  133.734 134.978 136.394 138.285 141.917 145.776 149.143 151.779 153.607 154.591 154.696 153.887 152.166 149.784 148.725
   7  133.517 134.456 135.029 135.280 140.545 145.229 148.895 151.619 153.461 154.438 154.538 153.747 152.086 149.817 148.911
   8  133.332 133.884 132.740 124.542 138.257 144.645 148.700 151.525 153.408 154.438 154.652 154.105 152.943 151.554 150.838
   9  133.497 134.429 134.992 135.232 140.485 145.157 148.817 151.548 153.431 154.517 154.864 154.571 153.830 152.977 152.476
  10  133.696 134.926 136.322 138.190 141.796 145.628 148.972 151.601 153.467 154.585 155.013 154.866 154.343 153.732 153.350
1
  HEAD IN LAYER   5 AT END OF TIME STEP  14 IN STRESS PERIOD    2
  ---------------------------------------------------------------------------

           1       2       3       4       5       6       7       8       9      10      11      12      13      14      15
 ...........................................................................................................................
   1  134.088 135.016 136.309 138.254 141.835 145.768 149.302 152.190 154.388 155.927 156.875 157.334 157.441 157.363 157.268
   2  133.872 134.533 135.150 136.106 140.673 145.276 149.087 152.055 154.250 155.742 156.609 156.956 156.927 156.714 156.530
   3  133.689 134.044 133.602 131.870 139.110 144.751 148.854 151.870 154.021 155.412 156.123 156.252 155.950 155.455 155.078
   4  133.846 134.498 135.100 136.034 140.570 145.127 148.867 151.730 153.762 155.007 155.510 155.340 154.645 153.718 153.030
   5  134.038 134.950 136.216 138.120 141.644 145.493 148.903 151.600 153.509 154.610 154.904 154.426 153.298 151.861 150.822
   6  134.021 134.928 136.185 138.076 141.585 145.412 148.791 151.445 153.293 154.304 154.465 153.786 152.370 150.617 149.650
   7  133.795 134.433 135.009 135.907 140.397 144.891 148.544 151.285 153.147 154.150 154.305 153.639 152.273 150.616 149.764
   8  133.611 133.942 133.460 131.673 138.842 144.385 148.356 151.190 153.091 154.143 154.397 153.930 152.921 151.760 151.103
   9  133.774 134.405 134.972 135.859 140.336 144.819 148.466 151.213 153.111 154.214 154.587 154.339 153.669 152.900 152.433
  10  133.979 134.874 136.113 137.981 141.463 145.263 148.618 151.265 153.146 154.278 154.725 154.606 154.122 153.551 153.188
1
  VOLUME BUDGET FOR ENTIRE MODEL AT END OF TIME STEP   14, STRESS PERIOD   2
  ------------------------------------------------------------------------------

     CUMULATIVE VOLUME      L**3       RATES FOR THIS TIME STEP      L**3/T
     ------------------                 ------------------------

           IN:                                      IN:
           ---                                      ---
         STORAGE(SS) =       40871.4660           STORAGE(SS) =       4.7421E-03
         STORAGE(SY) =           0.0000           STORAGE(SY) =           0.0000
               WELLS =           0.0000                 WELLS =           0.0000
       RIVER LEAKAGE =           0.0000         RIVER LEAKAGE =           0.0000
            RECHARGE =     9145789.0259              RECHARGE =      145000.0000
       CONSTANT HEAD =           0.0000         CONSTANT HEAD =           0.0000

            TOTAL IN =     9186660.4919              TOTAL IN =      145000.0047

          OUT:                                     OUT:
          ----                                     ----
         STORAGE(SS) =       2.4546E-02           STORAGE(SS) =       3.3646E-04
         STORAGE(SY) =           0.0000           STORAGE(SY) =           0.0000
               WELLS =     4345208.4952                 WELLS =       70000.0000
       RIVER LEAKAGE =     2252777.4193         RIVER LEAKAGE =       34486.9834
            RECHARGE =           0.0000              RECHARGE =           0.0000
       CONSTANT HEAD =     2589318.4748         CONSTANT HEAD =       40526.6476

           TOTAL OUT =     9187304.4139             TOTAL OUT =      145013.6313

            IN - OUT =        -643.9220              IN - OUT =         -13.6265

 PERCENT DISCREPANCY =          -0.01     PERCENT DISCREPANCY =          -0.01






         TIME SUMMARY AT END OF TIME STEP   14 IN STRESS PERIOD    2
                    SECONDS     MINUTES      HOURS       DAYS        YEARS
                    -----------------------------------------------------------
   TIME STEP LENGTH 6.61853E+05  11031.      183.85      7.6603     2.09728E-02
 STRESS PERIOD TIME 5.36323E+06  89387.      1489.8      62.074     0.16995    
         TOTAL TIME 5.44963E+06  90827.      1513.8      63.074     0.17269    
1
  HEAD IN LAYER   1 AT END OF TIME STEP  15 IN STRESS PERIOD    2
  ---------------------------------------------------------------------------

           1       2       3       4       5       6       7       8       9      10      11      12      13      14      15
 ...........................................................................................................................
   1  130.361 136.002 139.222 142.076 145.780 149.514 152.789 155.490 157.583 159.050 159.929 160.303 160.304 160.114 159.939
   2  130.344 135.629 138.322 140.531 144.968 149.166 152.621 155.366 157.440 158.845 159.616 159.830 159.613 159.178 158.817
   3  130.328 135.251 137.145 137.525 143.916 148.800 152.431 155.184 157.194 158.471 159.029 158.906 158.200 157.148 156.255
   4  130.343 135.601 138.272 140.453 144.858 149.013 152.396 155.022 156.905 157.998 158.253 157.613 156.041 153.678 151.305
   5  130.358 135.950 139.130 141.936 145.581 149.233 152.378 154.868 156.621 157.525 157.449 156.168 153.290 148.097 140.000
   6  130.357 135.933 139.099 141.892 145.520 149.151 152.264 154.706 156.386 157.169 156.858 155.055 150.747 140.000 140.000
   7  130.340 135.551 138.182 140.321 144.679 148.774 152.068 154.561 156.246 157.022 156.718 154.962 150.762 140.000 140.000
   8  130.324 135.171 137.003 137.304 143.632 148.429 151.928 154.485 156.213 157.075 156.995 155.848 153.487 150.093 149.050
   9  130.339 135.530 138.146 140.270 144.618 148.705 151.996 154.504 156.254 157.211 157.365 156.744 155.474 153.980 153.249
  10  130.355 135.892 139.030 141.795 145.398 149.006 152.102 154.548 156.299 157.312 157.601 157.248 156.442 155.538 155.011
1
  HEAD IN LAYER   2 AT END OF TIME STEP  15 IN STRESS PERIOD    2
  ---------------------------------------------------------------------------

           1       2       3       4       5       6       7       8       9      10      11      12      13      14      15
 ...........................................................................................................................
   1  131.876 135.565 138.014 140.412 144.206 148.078 151.471 154.246 156.378 157.870 158.774 159.178 159.216 159.066 158.919
   2  131.768 135.104 136.753 137.541 142.993 147.627 151.277 154.116 156.236 157.672 158.478 158.738 158.588 158.232 157.935
   3  131.668 134.571 134.483 125.955 140.787 147.084 151.056 153.932 155.996 157.314 157.926 157.892 157.330 156.479 155.774
   4  131.757 135.073 136.702 137.466 142.886 147.475 151.053 153.779 155.718 156.865 157.208 156.735 155.478 153.638 151.906
   5  131.854 135.509 137.922 140.274 144.010 147.800 151.064 153.635 155.445 156.419 156.474 155.481 153.240 149.481 144.395
   6  131.847 135.489 137.891 140.230 143.949 147.718 150.950 153.476 155.217 156.081 155.938 154.541 151.313 144.315 143.717
   7  131.735 135.017 136.612 137.336 142.709 147.237 150.727 153.324 155.074 155.931 155.791 154.429 151.292 144.356 143.862
   8  131.634 134.483 134.340 125.745 140.509 146.715 150.555 153.239 155.033 155.963 156.002 155.099 153.229 150.678 149.757
   9  131.726 134.994 136.576 137.286 142.649 147.167 150.653 153.261 155.066 156.076 156.308 155.819 154.764 153.532 152.892
  10  131.829 135.444 137.821 140.135 143.828 147.572 150.784 153.310 155.108 156.164 156.509 156.239 155.547 154.762 154.293
1
  HEAD IN LAYER   3 AT END OF TIME STEP  15 IN STRESS PERIOD    2
  ---------------------------------------------------------------------------

           1       2       3       4       5       6       7       8       9      10      11      12      13      14      15
 ...........................................................................................................................
   1  133.376 135.133 136.818 138.764 142.647 146.657 150.166 153.014 155.184 156.702 157.630 158.064 158.139 158.028 157.910
   2  133.178 134.583 135.199 134.581 141.039 146.103 149.945 152.879 155.044 156.511 157.350 157.658 157.573 157.296 157.061
   3  132.994 133.897 131.846 114.500 137.688 145.385 149.695 152.691 154.809 156.168 156.834 156.889 156.469 155.815 155.297
   4  133.157 134.550 135.149 134.508 140.934 145.952 149.724 152.548 154.542 155.744 156.173 155.866 154.921 153.600 152.502
   5  133.336 135.072 136.725 138.629 142.454 146.381 149.762 152.414 154.280 155.324 155.510 154.801 153.190 150.851 148.747
   6  133.322 135.050 136.694 138.585 142.394 146.299 149.650 152.257 154.059 155.003 155.028 154.031 151.874 148.587 147.396
   7  133.117 134.489 135.058 134.380 140.759 145.715 149.400 152.099 153.914 154.851 154.873 153.901 151.818 148.668 147.686
   8  132.931 133.802 131.705 114.300 137.416 145.018 149.195 152.005 153.864 154.862 155.018 154.356 152.973 151.258 150.457
   9  133.100 134.464 135.022 134.332 140.699 145.644 149.323 152.031 153.891 154.952 155.261 154.904 154.061 153.089 152.539
  10  133.289 135.001 136.624 138.490 142.273 146.151 149.480 152.084 153.929 155.027 155.427 155.240 154.661 153.993 153.581
1
  HEAD IN LAYER   4 AT END OF TIME STEP  15 IN STRESS PERIOD    2
  ---------------------------------------------------------------------------

           1       2       3       4       5       6       7       8       9      10      11      12      13      14      15
 ...........................................................................................................................
   1  133.796 135.064 136.518 138.463 142.169 146.133 149.657 152.528 154.714 156.245 157.185 157.633 157.727 157.635 157.532
   2  133.587 134.554 135.170 135.480 140.823 145.615 149.439 152.393 154.576 156.058 156.914 157.244 157.192 156.953 156.748
   3  133.404 133.984 132.881 124.741 138.527 145.011 149.199 152.207 154.344 155.723 156.415 156.513 156.163 155.603 155.168
   4  133.563 134.520 135.120 135.407 140.719 145.465 149.219 152.066 154.082 155.310 155.782 155.556 154.758 153.670 152.813
   5  133.750 135.000 136.425 138.329 141.977 145.858 149.256 151.934 153.826 154.903 155.153 154.580 153.254 151.447 149.971
   6  133.734 134.978 136.394 138.285 141.917 145.776 149.143 151.779 153.607 154.591 154.696 153.887 152.166 149.784 148.725
   7  133.517 134.456 135.029 135.280 140.545 145.229 148.895 151.619 153.461 154.438 154.538 153.747 152.086 149.817 148.911
   8  133.332 133.884 132.740 124.542 138.257 144.645 148.700 151.525 153.408 154.438 154.652 154.105 152.943 151.554 150.838
   9  133.497 134.429 134.992 135.232 140.485 145.157 148.817 151.548 153.431 154.517 154.864 154.571 153.830 152.977 152.476
  10  133.696 134.926 136.323 138.190 141.796 145.628 148.972 151.601 153.467 154.585 155.013 154.866 154.343 153.732 153.350
1
  HEAD IN LAYER   5 AT END OF TIME STEP  15 IN STRESS PERIOD    2
  ---------------------------------------------------------------------------

           1       2       3       4       5       6       7       8       9      10      11      12      13      14      15
 ...........................................................................................................................
   1  134.088 135.016 136.309 138.254 141.835 145.768 149.302 152.190 154.388 155.927 156.875 157.334 157.441 157.363 157.268
   2  133.872 134.533 135.150 136.106 140.673 145.276 149.087 152.055 154.250 155.742 156.609 156.956 156.927 156.714 156.530
   3  133.689 134.044 133.602 131.870 139.110 144.751 148.854 151.870 154.021 155.412 156.123 156.252 155.950 155.455 155.078
   4  133.846 134.498 135.100 136.034 140.570 145.127 148.867 151.730 153.762 155.007 155.510 155.340 154.645 153.718 153.030
   5  134.038 134.950 136.216 138.120 141.644 145.493 148.903 151.600 153.509 154.610 154.904 154.426 153.298 151.861 150.822
   6  134.021 134.928 136.185 138.076 141.585 145.412 148.791 151.445 153.293 154.304 154.465 153.786 152.370 150.617 149.650
   7  133.795 134.433 135.009 135.907 140.397 144.891 148.544 151.285 153.147 154.150 154.305 153.639 152.273 150.616 149.764
   8  133.611 133.942 133.460 131.673 138.842 144.385 148.356 151.190 153.091 154.143 154.397 153.930 152.921 151.760 151.103
   9  133.774 134.405 134.972 135.859 140.336 144.819 148.466 151.213 153.111 154.214 154.587 154.339 153.669 152.900 152.433
  10  133.979 134.874 136.113 137.981 141.463 145.263 148.618 151.265 153.146 154.278 154.725 154.606 154.122 153.551 153.188
1
  VOLUME BUDGET FOR ENTIRE MODEL AT END OF TIME STEP   15, STRESS PERIOD   2
  ------------------------------------------------------------------------------

     CUMULATIVE VOLUME      L**3       RATES FOR THIS TIME STEP      L**3/T
     ------------------                 ------------------------

           IN:                                      IN:
           ---                                      ---
         STORAGE(SS) =       40871.5001           STORAGE(SS) =       4.0458E-03
         STORAGE(SY) =           0.0000           STORAGE(SY) =           0.0000
               WELLS =           0.0000                 WELLS =           0.0000
       RIVER LEAKAGE =           0.0000         RIVER LEAKAGE =           0.0000
            RECHARGE =    10367612.1422              RECHARGE =      145000.0000
       CONSTANT HEAD =           0.0000         CONSTANT HEAD =           0.0000

            TOTAL IN =    10408483.6423              TOTAL IN =      145000.0040

          OUT:                                     OUT:
          ----                                     ----
         STORAGE(SS) =       2.7635E-02           STORAGE(SS) =       3.6657E-04
         STORAGE(SY) =           0.0000           STORAGE(SY) =           0.0000
               WELLS =     4935054.1376                 WELLS =       70000.0000
       RIVER LEAKAGE =     2543377.1949         RIVER LEAKAGE =       34486.9621
            RECHARGE =           0.0000              RECHARGE =           0.0000
       CONSTANT HEAD =     2930810.5913         CONSTANT HEAD =       40526.6165

           TOTAL OUT =    10409241.9514             TOTAL OUT =      145013.5790

            IN - OUT =        -758.3091              IN - OUT =         -13.5749

 PERCENT DISCREPANCY =          -0.01     PERCENT DISCREPANCY =          -0.01






         TIME SUMMARY AT END OF TIME STEP   15 IN STRESS PERIOD    2
                    SECONDS     MINUTES      HOURS       DAYS        YEARS
                    -----------------------------------------------------------
   TIME STEP LENGTH 7.28038E+05  12134.      202.23      8.4264     2.30701E-02
 STRESS PERIOD TIME 6.09127E+06 1.01521E+05  1692.0      70.501     0.19302    
         TOTAL TIME 6.17767E+06 1.02961E+05  1716.0      71.501     0.19576    
1
  HEAD IN LAYER   1 AT END OF TIME STEP  16 IN STRESS PERIOD    2
  ---------------------------------------------------------------------------

           1       2       3       4       5       6       7       8       9      10      11      12      13      14      15
 ...........................................................................................................................
   1  130.361 136.002 139.222 142.076 145.780 149.514 152.789 155.490 157.583 159.050 159.929 160.303 160.304 160.114 159.939
   2  130.344 135.629 138.322 140.531 144.968 149.166 152.621 155.366 157.440 158.845 159.616 159.830 159.613 159.178 158.817
   3  130.328 135.251 137.145 137.525 143.916 148.800 152.431 155.184 157.194 158.471 159.029 158.906 158.200 157.148 156.255
   4  130.343 135.601 138.272 140.453 144.858 149.013 152.396 155.022 156.905 157.998 158.253 157.613 156.041 153.678 151.305
   5  130.358 135.950 139.130 141.936 145.581 149.233 152.378 154.868 156.621 157.525 157.449 156.168 153.290 148.097 140.000
   6  130.357 135.933 139.099 141.892 145.520 149.151 152.264 154.706 156.386 157.169 156.858 155.055 150.747 140.000 140.000
   7  130.340 135.551 138.182 140.321 144.679 148.774 152.068 154.561 156.246 157.022 156.718 154.962 150.762 140.000 140.000
   8  130.324 135.171 137.003 137.304 143.632 148.429 151.928 154.485 156.213 157.075 156.995 155.848 153.487 150.093 149.050
   9  130.339 135.530 138.146 140.270 144.618 148.705 151.996 154.504 156.254 157.211 157.365 156.744 155.474 153.980 153.249
  10  130.355 135.892 139.030 141.795 145.398 149.006 152.102 154.548 156.299 157.312 157.601 157.248 156.442 155.538 155.011
1
  HEAD IN LAYER   2 AT END OF TIME STEP  16 IN STRESS PERIOD    2
  ---------------------------------------------------------------------------

           1       2       3       4       5       6       7       8       9      10      11      12      13      14      15
 ...........................................................................................................................
   1  131.876 135.565 138.014 140.412 144.206 148.078 151.471 154.246 156.378 157.870 158.774 159.178 159.216 159.066 158.919
   2  131.768 135.104 136.753 137.541 142.993 147.627 151.277 154.116 156.236 157.672 158.478 158.738 158.588 158.232 157.935
   3  131.668 134.571 134.483 125.955 140.787 147.084 151.056 153.932 155.996 157.314 157.926 157.892 157.330 156.479 155.774
   4  131.757 135.073 136.702 137.466 142.886 147.475 151.053 153.779 155.718 156.865 157.208 156.735 155.478 153.638 151.906
   5  131.854 135.509 137.922 140.274 144.010 147.800 151.064 153.635 155.445 156.419 156.474 155.481 153.240 149.481 144.395
   6  131.847 135.489 137.891 140.230 143.949 147.718 150.950 153.476 155.217 156.081 155.938 154.541 151.313 144.315 143.717
   7  131.735 135.017 136.612 137.336 142.709 147.237 150.727 153.324 155.074 155.931 155.791 154.429 151.292 144.356 143.862
   8  131.634 134.483 134.340 125.745 140.509 146.715 150.555 153.239 155.033 155.963 156.002 155.099 153.229 150.678 149.757
   9  131.726 134.994 136.576 137.286 142.649 147.167 150.653 153.261 155.066 156.076 156.308 155.819 154.764 153.532 152.892
  10  131.829 135.444 137.821 140.135 143.828 147.572 150.784 153.310 155.108 156.164 156.509 156.239 155.547 154.762 154.293
1
  HEAD IN LAYER   3 AT END OF TIME STEP  16 IN STRESS PERIOD    2
  ---------------------------------------------------------------------------

           1       2       3       4       5       6       7       8       9      10      11      12      13      14      15
 ...........................................................................................................................
   1  133.376 135.133 136.818 138.764 142.647 146.657 150.165 153.014 155.184 156.702 157.630 158.064 158.139 158.028 157.910
   2  133.178 134.583 135.199 134.581 141.039 146.103 149.945 152.879 155.044 156.511 157.350 157.658 157.573 157.296 157.061
   3  132.994 133.897 131.846 114.500 137.688 145.385 149.695 152.691 154.809 156.168 156.834 156.889 156.469 155.815 155.297
   4  133.157 134.550 135.149 134.508 140.934 145.952 149.724 152.548 154.542 155.744 156.173 155.866 154.921 153.600 152.502
   5  133.336 135.072 136.725 138.629 142.454 146.381 149.762 152.414 154.280 155.324 155.510 154.801 153.190 150.851 148.747
   6  133.322 135.050 136.694 138.585 142.394 146.299 149.650 152.257 154.059 155.003 155.028 154.031 151.874 148.587 147.396
   7  133.117 134.489 135.058 134.380 140.759 145.715 149.400 152.099 153.914 154.851 154.873 153.901 151.818 148.668 147.686
   8  132.931 133.802 131.705 114.299 137.416 145.018 149.195 152.005 153.864 154.862 155.018 154.356 152.973 151.258 150.457
   9  133.100 134.464 135.022 134.332 140.699 145.644 149.323 152.031 153.891 154.952 155.261 154.904 154.061 153.089 152.539
  10  133.289 135.001 136.624 138.490 142.273 146.151 149.480 152.084 153.929 155.027 155.427 155.240 154.661 153.993 153.581
1
  HEAD IN LAYER   4 AT END OF TIME STEP  16 IN STRESS PERIOD    2
  ---------------------------------------------------------------------------

           1       2       3       4       5       6       7       8       9      10      11      12      13      14      15
 ...........................................................................................................................
   1  133.796 135.064 136.518 138.463 142.169 146.133 149.657 152.528 154.714 156.245 157.185 157.633 157.727 157.635 157.532
   2  133.587 134.554 135.170 135.480 140.823 145.615 149.439 152.393 154.576 156.058 156.914 157.244 157.192 156.953 156.748
   3  133.404 133.984 132.881 124.741 138.527 145.011 149.199 152.207 154.344 155.723 156.415 156.513 156.163 155.603 155.168
   4  133.563 134.520 135.120 135.407 140.719 145.465 149.219 152.066 154.082 155.310 155.782 155.556 154.758 153.670 152.813
   5  133.750 135.000 136.425 138.329 141.977 145.858 149.256 151.934 153.826 154.903 155.153 154.580 153.254 151.447 149.971
   6  133.734 134.978 136.394 138.285 141.917 145.776 149.143 151.779 153.607 154.591 154.696 153.887 152.166 149.784 148.725
   7  133.517 134.456 135.029 135.280 140.545 145.229 148.895 151.619 153.461 154.438 154.538 153.747 152.086 149.817 148.911
   8  133.332 133.884 132.740 124.542 138.257 144.645 148.700 151.525 153.408 154.438 154.652 154.105 152.943 151.554 150.838
   9  133.497 134.429 134.992 135.232 140.485 145.157 148.817 151.548 153.431 154.517 154.864 154.571 153.830 152.977 152.476
  10  133.696 134.926 136.322 138.190 141.796 145.628 148.972 151.601 153.467 154.585 155.013 154.866 154.343 153.732 153.350
1
  HEAD IN LAYER   5 AT END OF TIME STEP  16 IN STRESS PERIOD    2
  ---------------------------------------------------------------------------

           1       2       3       4       5       6       7       8       9      10      11      12      13      14      15
 ...........................................................................................................................
   1  134.088 135.016 136.309 138.254 141.835 145.768 149.302 152.190 154.388 155.927 156.875 157.334 157.441 157.363 157.268
   2  133.872 134.533 135.150 136.106 140.673 145.276 149.087 152.055 154.250 155.742 156.609 156.956 156.927 156.714 156.530
   3  133.689 134.044 133.602 131.870 139.110 144.751 148.854 151.870 154.021 155.412 156.123 156.252 155.950 155.455 155.078
   4  133.846 134.498 135.100 136.034 140.570 145.127 148.867 151.730 153.762 155.007 155.510 155.340 154.645 153.718 153.030
   5  134.038 134.950 136.216 138.120 141.644 145.493 148.903 151.600 153.509 154.610 154.904 154.426 153.298 151.861 150.822
   6  134.021 134.928 136.185 138.076 141.585 145.412 148.791 151.445 153.293 154.304 154.465 153.786 152.370 150.617 149.650
   7  133.795 134.433 135.009 135.907 140.397 144.891 148.544 151.285 153.147 154.150 154.305 153.639 152.273 150.616 149.764
   8  133.611 133.942 133.460 131.673 138.842 144.385 148.356 151.190 153.091 154.143 154.397 153.930 152.921 151.760 151.103
   9  133.774 134.405 134.972 135.859 140.336 144.819 148.466 151.212 153.111 154.214 154.587 154.339 153.669 152.900 152.433
  10  133.979 134.874 136.113 137.981 141.463 145.263 148.618 151.265 153.146 154.278 154.725 154.606 154.122 153.551 153.188
1
  VOLUME BUDGET FOR ENTIRE MODEL AT END OF TIME STEP   16, STRESS PERIOD   2
  ------------------------------------------------------------------------------

     CUMULATIVE VOLUME      L**3       RATES FOR THIS TIME STEP      L**3/T
     ------------------                 ------------------------

           IN:                                      IN:
           ---                                      ---
         STORAGE(SS) =       40871.5351           STORAGE(SS) =       3.7807E-03
         STORAGE(SY) =           0.0000           STORAGE(SY) =           0.0000
               WELLS =           0.0000                 WELLS =           0.0000
       RIVER LEAKAGE =           0.0000         RIVER LEAKAGE =           0.0000
            RECHARGE =    11711617.5702              RECHARGE =      145000.0000
       CONSTANT HEAD =           0.0000         CONSTANT HEAD =           0.0000

            TOTAL IN =    11752489.1054              TOTAL IN =      145000.0038

          OUT:                                     OUT:
          ----                                     ----
         STORAGE(SS) =       3.0243E-02           STORAGE(SS) =       2.8136E-04
         STORAGE(SY) =           0.0000           STORAGE(SY) =           0.0000
               WELLS =     5583884.3442                 WELLS =       70000.0000
       RIVER LEAKAGE =     2863036.6419         RIVER LEAKAGE =       34486.9290
            RECHARGE =           0.0000              RECHARGE =           0.0000
       CONSTANT HEAD =     3306451.8266         CONSTANT HEAD =       40526.6065

           TOTAL OUT =    11753372.8430             TOTAL OUT =      145013.5358

            IN - OUT =        -883.7376              IN - OUT =         -13.5320

 PERCENT DISCREPANCY =          -0.01     PERCENT DISCREPANCY =          -0.01






         TIME SUMMARY AT END OF TIME STEP   16 IN STRESS PERIOD    2
                    SECONDS     MINUTES      HOURS       DAYS        YEARS
                    -----------------------------------------------------------
   TIME STEP LENGTH 8.00842E+05  13347.      222.46      9.2690     2.53771E-02
 STRESS PERIOD TIME 6.89211E+06 1.14868E+05  1914.5      79.770     0.21840    
         TOTAL TIME 6.97851E+06 1.16308E+05  1938.5      80.770     0.22114    
1
  HEAD IN LAYER   1 AT END OF TIME STEP  17 IN STRESS PERIOD    2
  ---------------------------------------------------------------------------

           1       2       3       4       5       6       7       8       9      10      11      12      13      14      15
 ...........................................................................................................................
   1  130.361 136.002 139.222 142.076 145.780 149.514 152.789 155.490 157.583 159.050 159.929 160.303 160.304 160.114 159.939
   2  130.344 135.629 138.322 140.531 144.968 149.166 152.621 155.366 157.440 158.845 159.616 159.830 159.613 159.178 158.817
   3  130.328 135.251 137.145 137.525 143.916 148.800 152.431 155.184 157.194 158.470 159.029 158.906 158.200 157.148 156.255
   4  130.343 135.601 138.272 140.453 144.858 149.013 152.396 155.022 156.905 157.998 158.253 157.613 156.041 153.678 151.305
   5  130.358 135.950 139.130 141.936 145.581 149.233 152.378 154.868 156.621 157.525 157.449 156.168 153.290 148.097 140.000
   6  130.357 135.933 139.099 141.892 145.520 149.151 152.264 154.706 156.386 157.169 156.858 155.055 150.747 140.000 140.000
   7  130.340 135.551 138.182 140.321 144.679 148.774 152.068 154.561 156.246 157.022 156.718 154.962 150.762 140.000 140.000
   8  130.324 135.171 137.003 137.304 143.632 148.429 151.928 154.485 156.213 157.075 156.995 155.848 153.487 150.093 149.050
   9  130.339 135.530 138.146 140.270 144.618 148.705 151.996 154.504 156.254 157.211 157.365 156.744 155.474 153.980 153.249
  10  130.355 135.892 139.030 141.795 145.398 149.006 152.102 154.548 156.299 157.312 157.601 157.248 156.442 155.538 155.011
1
  HEAD IN LAYER   2 AT END OF TIME STEP  17 IN STRESS PERIOD    2
  ---------------------------------------------------------------------------

           1       2       3       4       5       6       7       8       9      10      11      12      13      14      15
 ...........................................................................................................................
   1  131.876 135.565 138.014 140.412 144.206 148.078 151.471 154.246 156.378 157.870 158.774 159.178 159.216 159.066 158.919
   2  131.768 135.104 136.753 137.541 142.993 147.627 151.277 154.116 156.236 157.672 158.478 158.738 158.588 158.232 157.935
   3  131.668 134.571 134.483 125.955 140.787 147.084 151.056 153.932 155.996 157.314 157.926 157.892 157.330 156.479 155.774
   4  131.757 135.073 136.702 137.466 142.886 147.475 151.053 153.779 155.718 156.865 157.208 156.735 155.478 153.638 151.906
   5  131.854 135.509 137.922 140.274 144.010 147.800 151.064 153.635 155.445 156.419 156.474 155.481 153.240 149.481 144.395
   6  131.847 135.489 137.891 140.230 143.949 147.718 150.950 153.476 155.217 156.081 155.938 154.541 151.313 144.315 143.717
   7  131.735 135.017 136.612 137.336 142.709 147.237 150.727 153.324 155.074 155.931 155.791 154.429 151.292 144.356 143.862
   8  131.634 134.483 134.340 125.745 140.509 146.715 150.555 153.239 155.033 155.963 156.002 155.099 153.229 150.678 149.757
   9  131.726 134.994 136.576 137.286 142.649 147.167 150.653 153.261 155.066 156.076 156.308 155.819 154.764 153.532 152.892
  10  131.829 135.444 137.821 140.135 143.828 147.572 150.784 153.310 155.108 156.164 156.509 156.239 155.547 154.762 154.293
1
  HEAD IN LAYER   3 AT END OF TIME STEP  17 IN STRESS PERIOD    2
  ---------------------------------------------------------------------------

           1       2       3       4       5       6       7       8       9      10      11      12      13      14      15
 ...........................................................................................................................
   1  133.376 135.133 136.818 138.764 142.647 146.657 150.165 153.014 155.184 156.702 157.630 158.064 158.139 158.028 157.910
   2  133.178 134.583 135.199 134.581 141.039 146.103 149.945 152.879 155.044 156.511 157.350 157.658 157.573 157.296 157.061
   3  132.994 133.897 131.846 114.500 137.688 145.385 149.695 152.691 154.809 156.168 156.834 156.889 156.469 155.815 155.297
   4  133.157 134.550 135.149 134.508 140.934 145.952 149.724 152.548 154.542 155.744 156.173 155.866 154.921 153.600 152.502
   5  133.336 135.072 136.725 138.629 142.454 146.381 149.762 152.414 154.280 155.324 155.510 154.801 153.190 150.851 148.747
   6  133.322 135.050 136.694 138.585 142.394 146.299 149.649 152.257 154.059 155.003 155.028 154.031 151.874 148.587 147.396
   7  133.117 134.489 135.058 134.380 140.759 145.715 149.400 152.099 153.914 154.851 154.873 153.901 151.818 148.668 147.686
   8  132.931 133.802 131.705 114.299 137.416 145.018 149.195 152.005 153.864 154.862 155.018 154.356 152.973 151.258 150.457
   9  133.100 134.464 135.022 134.332 140.699 145.644 149.323 152.031 153.891 154.952 155.261 154.904 154.061 153.089 152.539
  10  133.289 135.001 136.624 138.490 142.273 146.151 149.480 152.084 153.929 155.027 155.427 155.240 154.661 153.993 153.581
1
  HEAD IN LAYER   4 AT END OF TIME STEP  17 IN STRESS PERIOD    2
  ---------------------------------------------------------------------------

           1       2       3       4       5       6       7       8       9      10      11      12      13      14      15
 ...........................................................................................................................
   1  133.796 135.064 136.518 138.463 142.168 146.133 149.657 152.528 154.714 156.245 157.185 157.633 157.727 157.635 157.532
   2  133.587 134.554 135.170 135.480 140.823 145.615 149.439 152.393 154.576 156.058 156.914 157.244 157.192 156.953 156.748
   3  133.404 133.984 132.881 124.741 138.527 145.011 149.199 152.207 154.344 155.723 156.415 156.513 156.163 155.603 155.168
   4  133.563 134.520 135.120 135.407 140.719 145.465 149.219 152.066 154.082 155.310 155.782 155.556 154.758 153.670 152.813
   5  133.750 135.000 136.425 138.329 141.977 145.858 149.255 151.934 153.826 154.903 155.153 154.580 153.254 151.447 149.971
   6  133.734 134.978 136.394 138.285 141.917 145.776 149.143 151.779 153.607 154.591 154.696 153.887 152.166 149.784 148.725
   7  133.517 134.456 135.029 135.280 140.545 145.229 148.895 151.619 153.461 154.438 154.538 153.747 152.086 149.817 148.911
   8  133.332 133.884 132.740 124.542 138.257 144.645 148.700 151.525 153.408 154.438 154.652 154.105 152.943 151.554 150.838
   9  133.497 134.429 134.992 135.232 140.485 145.157 148.817 151.548 153.431 154.517 154.864 154.571 153.830 152.977 152.476
  10  133.696 134.926 136.322 138.190 141.796 145.628 148.972 151.601 153.467 154.585 155.013 154.866 154.343 153.732 153.350
1
  HEAD IN LAYER   5 AT END OF TIME STEP  17 IN STRESS PERIOD    2
  ---------------------------------------------------------------------------

           1       2       3       4       5       6       7       8       9      10      11      12      13      14      15
 ...........................................................................................................................
   1  134.088 135.016 136.309 138.254 141.835 145.768 149.302 152.190 154.388 155.927 156.875 157.334 157.441 157.363 157.268
   2  133.872 134.533 135.150 136.106 140.673 145.276 149.087 152.055 154.250 155.742 156.609 156.956 156.927 156.714 156.530
   3  133.689 134.044 133.602 131.870 139.110 144.750 148.854 151.870 154.021 155.412 156.123 156.251 155.950 155.455 155.078
   4  133.846 134.498 135.100 136.034 140.570 145.127 148.867 151.730 153.762 155.007 155.510 155.340 154.645 153.718 153.030
   5  134.038 134.950 136.216 138.120 141.644 145.493 148.903 151.600 153.509 154.610 154.904 154.426 153.298 151.861 150.822
   6  134.021 134.928 136.185 138.076 141.585 145.412 148.791 151.445 153.293 154.304 154.465 153.786 152.370 150.617 149.650
   7  133.795 134.433 135.009 135.907 140.397 144.890 148.544 151.285 153.146 154.150 154.305 153.639 152.273 150.616 149.764
   8  133.611 133.942 133.460 131.673 138.842 144.385 148.356 151.190 153.091 154.143 154.397 153.930 152.921 151.760 151.103
   9  133.774 134.405 134.972 135.859 140.336 144.819 148.466 151.212 153.111 154.214 154.587 154.339 153.669 152.900 152.433
  10  133.979 134.874 136.113 137.981 141.463 145.263 148.618 151.265 153.146 154.278 154.725 154.606 154.122 153.551 153.188
1
  VOLUME BUDGET FOR ENTIRE MODEL AT END OF TIME STEP   17, STRESS PERIOD   2
  ------------------------------------------------------------------------------

     CUMULATIVE VOLUME      L**3       RATES FOR THIS TIME STEP      L**3/T
     ------------------                 ------------------------

           IN:                                      IN:
           ---                                      ---
         STORAGE(SS) =       40871.5686           STORAGE(SS) =       3.2793E-03
         STORAGE(SY) =           0.0000           STORAGE(SY) =           0.0000
               WELLS =           0.0000                 WELLS =           0.0000
       RIVER LEAKAGE =           0.0000         RIVER LEAKAGE =           0.0000
            RECHARGE =    13190023.5410              RECHARGE =      145000.0000
       CONSTANT HEAD =           0.0000         CONSTANT HEAD =           0.0000

            TOTAL IN =    13230895.1096              TOTAL IN =      145000.0033

          OUT:                                     OUT:
          ----                                     ----
         STORAGE(SS) =       3.3181E-02           STORAGE(SS) =       2.8812E-04
         STORAGE(SY) =           0.0000           STORAGE(SY) =           0.0000
               WELLS =     6297597.5715                 WELLS =       70000.0000
       RIVER LEAKAGE =     3214661.8123         RIVER LEAKAGE =       34486.9073
            RECHARGE =           0.0000              RECHARGE =           0.0000
       CONSTANT HEAD =     3719656.8669         CONSTANT HEAD =       40526.5753

           TOTAL OUT =    13231916.2839             TOTAL OUT =      145013.4829

            IN - OUT =       -1021.1743              IN - OUT =         -13.4796

 PERCENT DISCREPANCY =          -0.01     PERCENT DISCREPANCY =          -0.01






         TIME SUMMARY AT END OF TIME STEP   17 IN STRESS PERIOD    2
                    SECONDS     MINUTES      HOURS       DAYS        YEARS
                    -----------------------------------------------------------
   TIME STEP LENGTH 8.80926E+05  14682.      244.70      10.196     2.79149E-02
 STRESS PERIOD TIME 7.77303E+06 1.29551E+05  2159.2      89.966     0.24631    
         TOTAL TIME 7.85943E+06 1.30991E+05  2183.2      90.966     0.24905    
1
  HEAD IN LAYER   1 AT END OF TIME STEP  18 IN STRESS PERIOD    2
  ---------------------------------------------------------------------------

           1       2       3       4       5       6       7       8       9      10      11      12      13      14      15
 ...........................................................................................................................
   1  130.361 136.002 139.222 142.076 145.780 149.514 152.789 155.490 157.583 159.050 159.929 160.303 160.304 160.114 159.939
   2  130.344 135.629 138.322 140.531 144.968 149.166 152.621 155.366 157.440 158.845 159.616 159.829 159.613 159.178 158.817
   3  130.328 135.251 137.145 137.525 143.916 148.800 152.431 155.184 157.194 158.470 159.029 158.906 158.200 157.148 156.255
   4  130.343 135.601 138.272 140.453 144.858 149.013 152.396 155.022 156.905 157.998 158.253 157.613 156.041 153.678 151.305
   5  130.358 135.950 139.130 141.936 145.581 149.233 152.378 154.868 156.621 157.525 157.449 156.168 153.290 148.097 140.000
   6  130.357 135.933 139.099 141.892 145.520 149.151 152.264 154.706 156.386 157.169 156.858 155.055 150.747 140.000 140.000
   7  130.340 135.551 138.182 140.321 144.679 148.774 152.068 154.561 156.246 157.022 156.718 154.962 150.762 140.000 140.000
   8  130.324 135.171 137.003 137.304 143.632 148.429 151.928 154.485 156.213 157.075 156.995 155.848 153.487 150.093 149.050
   9  130.339 135.530 138.146 140.270 144.618 148.705 151.996 154.504 156.254 157.211 157.365 156.744 155.474 153.980 153.249
  10  130.355 135.892 139.030 141.795 145.398 149.006 152.102 154.548 156.299 157.312 157.601 157.248 156.442 155.538 155.011
1
  HEAD IN LAYER   2 AT END OF TIME STEP  18 IN STRESS PERIOD    2
  ---------------------------------------------------------------------------

           1       2       3       4       5       6       7       8       9      10      11      12      13      14      15
 ...........................................................................................................................
   1  131.876 135.565 138.014 140.412 144.206 148.078 151.471 154.246 156.378 157.870 158.774 159.178 159.216 159.066 158.919
   2  131.768 135.104 136.753 137.541 142.993 147.627 151.277 154.116 156.236 157.672 158.478 158.738 158.588 158.232 157.935
   3  131.668 134.571 134.482 125.955 140.787 147.084 151.056 153.932 155.996 157.314 157.926 157.892 157.330 156.478 155.774
   4  131.757 135.073 136.702 137.466 142.886 147.475 151.053 153.779 155.718 156.865 157.208 156.735 155.478 153.638 151.906
   5  131.854 135.509 137.922 140.274 144.010 147.800 151.064 153.635 155.445 156.419 156.474 155.481 153.240 149.481 144.395
   6  131.847 135.489 137.891 140.230 143.949 147.718 150.950 153.476 155.217 156.081 155.938 154.541 151.313 144.315 143.717
   7  131.735 135.017 136.612 137.336 142.709 147.237 150.727 153.324 155.074 155.931 155.791 154.429 151.292 144.356 143.862
   8  131.634 134.483 134.340 125.745 140.509 146.715 150.555 153.239 155.033 155.963 156.001 155.099 153.229 150.678 149.757
   9  131.726 134.994 136.576 137.286 142.649 147.167 150.653 153.261 155.066 156.076 156.308 155.819 154.764 153.532 152.892
  10  131.829 135.444 137.821 140.135 143.828 147.572 150.784 153.310 155.108 156.164 156.509 156.239 155.547 154.762 154.293
1
  HEAD IN LAYER   3 AT END OF TIME STEP  18 IN STRESS PERIOD    2
  ---------------------------------------------------------------------------

           1       2       3       4       5       6       7       8       9      10      11      12      13      14      15
 ...........................................................................................................................
   1  133.376 135.133 136.818 138.764 142.647 146.657 150.165 153.014 155.184 156.702 157.630 158.064 158.139 158.028 157.910
   2  133.178 134.583 135.199 134.581 141.039 146.103 149.945 152.879 155.044 156.511 157.350 157.658 157.573 157.296 157.061
   3  132.994 133.897 131.846 114.500 137.688 145.385 149.695 152.691 154.809 156.168 156.834 156.889 156.469 155.815 155.297
   4  133.157 134.550 135.149 134.508 140.934 145.952 149.724 152.548 154.542 155.744 156.173 155.866 154.921 153.600 152.502
   5  133.336 135.072 136.725 138.629 142.454 146.381 149.762 152.414 154.280 155.324 155.510 154.801 153.190 150.851 148.747
   6  133.322 135.050 136.694 138.585 142.394 146.299 149.649 152.257 154.059 155.003 155.028 154.031 151.874 148.587 147.396
   7  133.117 134.489 135.058 134.380 140.759 145.715 149.400 152.099 153.914 154.851 154.873 153.901 151.818 148.668 147.686
   8  132.931 133.802 131.705 114.299 137.416 145.018 149.195 152.005 153.864 154.862 155.018 154.356 152.973 151.258 150.457
   9  133.100 134.464 135.022 134.332 140.699 145.644 149.323 152.031 153.891 154.952 155.261 154.904 154.061 153.089 152.538
  10  133.289 135.001 136.624 138.490 142.273 146.151 149.480 152.084 153.929 155.027 155.427 155.240 154.661 153.993 153.581
1
  HEAD IN LAYER   4 AT END OF TIME STEP  18 IN STRESS PERIOD    2
  ---------------------------------------------------------------------------

           1       2       3       4       5       6       7       8       9      10      11      12      13      14      15
 ...........................................................................................................................
   1  133.796 135.064 136.518 138.463 142.168 146.133 149.657 152.528 154.714 156.245 157.185 157.633 157.727 157.635 157.532
   2  133.587 134.554 135.170 135.480 140.823 145.615 149.439 152.393 154.576 156.058 156.913 157.244 157.192 156.953 156.748
   3  133.404 133.984 132.881 124.741 138.527 145.011 149.199 152.207 154.344 155.723 156.415 156.513 156.163 155.603 155.168
   4  133.563 134.520 135.120 135.407 140.719 145.465 149.219 152.066 154.082 155.310 155.782 155.556 154.758 153.670 152.813
   5  133.750 135.000 136.425 138.329 141.977 145.858 149.255 151.934 153.826 154.903 155.153 154.580 153.254 151.447 149.971
   6  133.734 134.978 136.394 138.285 141.917 145.776 149.143 151.779 153.607 154.591 154.696 153.887 152.166 149.784 148.725
   7  133.517 134.456 135.029 135.280 140.545 145.229 148.895 151.619 153.461 154.438 154.538 153.747 152.086 149.817 148.911
   8  133.332 133.884 132.740 124.542 138.256 144.645 148.700 151.525 153.408 154.438 154.652 154.105 152.943 151.554 150.838
   9  133.497 134.429 134.992 135.232 140.485 145.157 148.817 151.548 153.431 154.517 154.864 154.571 153.830 152.977 152.476
  10  133.696 134.926 136.322 138.190 141.795 145.628 148.972 151.601 153.467 154.585 155.013 154.866 154.343 153.732 153.350
1
  HEAD IN LAYER   5 AT END OF TIME STEP  18 IN STRESS PERIOD    2
  ---------------------------------------------------------------------------

           1       2       3       4       5       6       7       8       9      10      11      12      13      14      15
 ...........................................................................................................................
   1  134.088 135.016 136.309 138.254 141.835 145.768 149.302 152.190 154.387 155.927 156.875 157.334 157.441 157.363 157.268
   2  133.872 134.533 135.150 136.106 140.673 145.276 149.087 152.055 154.250 155.742 156.609 156.956 156.927 156.714 156.530
   3  133.689 134.044 133.602 131.870 139.110 144.750 148.854 151.870 154.021 155.412 156.123 156.251 155.950 155.455 155.078
   4  133.846 134.498 135.100 136.034 140.570 145.127 148.867 151.730 153.762 155.007 155.510 155.340 154.645 153.718 153.030
   5  134.038 134.950 136.216 138.120 141.644 145.493 148.903 151.600 153.509 154.610 154.904 154.426 153.298 151.861 150.822
   6  134.021 134.928 136.185 138.076 141.585 145.412 148.791 151.445 153.293 154.304 154.465 153.786 152.370 150.617 149.650
   7  133.795 134.433 135.009 135.907 140.397 144.890 148.544 151.285 153.146 154.150 154.305 153.639 152.273 150.616 149.764
   8  133.611 133.942 133.460 131.673 138.842 144.385 148.356 151.190 153.091 154.143 154.397 153.930 152.921 151.760 151.103
   9  133.774 134.405 134.972 135.859 140.336 144.819 148.466 151.212 153.111 154.214 154.587 154.339 153.669 152.900 152.433
  10  133.979 134.874 136.113 137.981 141.463 145.263 148.618 151.265 153.146 154.278 154.725 154.606 154.122 153.551 153.188
1
  VOLUME BUDGET FOR ENTIRE MODEL AT END OF TIME STEP   18, STRESS PERIOD   2
  ------------------------------------------------------------------------------

     CUMULATIVE VOLUME      L**3       RATES FOR THIS TIME STEP      L**3/T
     ------------------                 ------------------------

           IN:                                      IN:
           ---                                      ---
         STORAGE(SS) =       40871.6027           STORAGE(SS) =       3.0454E-03
         STORAGE(SY) =           0.0000           STORAGE(SY) =           0.0000
               WELLS =           0.0000                 WELLS =           0.0000
       RIVER LEAKAGE =           0.0000         RIVER LEAKAGE =           0.0000
            RECHARGE =    14816270.1089              RECHARGE =      145000.0000
       CONSTANT HEAD =           0.0000         CONSTANT HEAD =           0.0000

            TOTAL IN =    14857141.7116              TOTAL IN =      145000.0030

          OUT:                                     OUT:
          ----                                     ----
         STORAGE(SS) =       3.5757E-02           STORAGE(SS) =       2.2967E-04
         STORAGE(SY) =           0.0000           STORAGE(SY) =           0.0000
               WELLS =     7082682.1215                 WELLS =       70000.0000
       RIVER LEAKAGE =     3601449.1535         RIVER LEAKAGE =       34486.8765
            RECHARGE =           0.0000              RECHARGE =           0.0000
       CONSTANT HEAD =     4174182.2914         CONSTANT HEAD =       40526.5646

           TOTAL OUT =    14858313.6021             TOTAL OUT =      145013.4413

            IN - OUT =       -1171.8905              IN - OUT =         -13.4382

 PERCENT DISCREPANCY =          -0.01     PERCENT DISCREPANCY =          -0.01






         TIME SUMMARY AT END OF TIME STEP   18 IN STRESS PERIOD    2
                    SECONDS     MINUTES      HOURS       DAYS        YEARS
                    -----------------------------------------------------------
   TIME STEP LENGTH 9.69019E+05  16150.      269.17      11.215     3.07063E-02
 STRESS PERIOD TIME 8.74205E+06 1.45701E+05  2428.3      101.18     0.27702    
         TOTAL TIME 8.82845E+06 1.47141E+05  2452.3      102.18     0.27976    
1
  HEAD IN LAYER   1 AT END OF TIME STEP  19 IN STRESS PERIOD    2
  ---------------------------------------------------------------------------

           1       2       3       4       5       6       7       8       9      10      11      12      13      14      15
 ...........................................................................................................................
   1  130.361 136.002 139.222 142.076 145.780 149.514 152.789 155.490 157.583 159.050 159.929 160.303 160.304 160.114 159.939
   2  130.344 135.629 138.322 140.531 144.968 149.166 152.621 155.366 157.440 158.845 159.616 159.829 159.613 159.178 158.817
   3  130.328 135.251 137.145 137.525 143.916 148.800 152.431 155.184 157.194 158.470 159.029 158.906 158.200 157.148 156.255
   4  130.343 135.601 138.272 140.453 144.858 149.013 152.396 155.022 156.905 157.998 158.253 157.613 156.041 153.678 151.305
   5  130.358 135.950 139.130 141.936 145.581 149.233 152.378 154.868 156.621 157.525 157.449 156.168 153.290 148.097 140.000
   6  130.357 135.933 139.099 141.892 145.520 149.151 152.264 154.706 156.386 157.169 156.858 155.055 150.747 140.000 140.000
   7  130.340 135.551 138.182 140.321 144.679 148.774 152.068 154.561 156.246 157.022 156.718 154.962 150.762 140.000 140.000
   8  130.324 135.171 137.003 137.304 143.632 148.429 151.928 154.485 156.213 157.075 156.995 155.848 153.487 150.093 149.050
   9  130.339 135.530 138.146 140.270 144.618 148.705 151.996 154.504 156.254 157.211 157.365 156.744 155.474 153.980 153.249
  10  130.355 135.892 139.030 141.795 145.398 149.006 152.101 154.548 156.299 157.312 157.601 157.248 156.442 155.538 155.011
1
  HEAD IN LAYER   2 AT END OF TIME STEP  19 IN STRESS PERIOD    2
  ---------------------------------------------------------------------------

           1       2       3       4       5       6       7       8       9      10      11      12      13      14      15
 ...........................................................................................................................
   1  131.876 135.565 138.014 140.412 144.206 148.078 151.471 154.246 156.378 157.870 158.774 159.178 159.216 159.066 158.919
   2  131.768 135.104 136.753 137.541 142.993 147.627 151.277 154.116 156.236 157.672 158.478 158.738 158.588 158.232 157.935
   3  131.668 134.571 134.482 125.955 140.787 147.084 151.056 153.932 155.996 157.314 157.926 157.892 157.330 156.478 155.773
   4  131.757 135.073 136.702 137.466 142.886 147.475 151.053 153.779 155.718 156.865 157.208 156.735 155.478 153.638 151.906
   5  131.854 135.509 137.922 140.274 144.010 147.800 151.064 153.635 155.445 156.419 156.474 155.481 153.240 149.481 144.395
   6  131.847 135.489 137.891 140.230 143.949 147.718 150.950 153.476 155.217 156.081 155.938 154.541 151.313 144.315 143.717
   7  131.735 135.017 136.612 137.336 142.709 147.237 150.727 153.324 155.074 155.931 155.791 154.429 151.292 144.356 143.862
   8  131.634 134.483 134.340 125.745 140.509 146.715 150.555 153.239 155.033 155.963 156.001 155.099 153.229 150.678 149.757
   9  131.726 134.994 136.576 137.286 142.649 147.167 150.653 153.261 155.066 156.076 156.308 155.819 154.764 153.532 152.892
  10  131.829 135.444 137.821 140.135 143.828 147.572 150.784 153.310 155.108 156.164 156.509 156.239 155.547 154.762 154.293
1
  HEAD IN LAYER   3 AT END OF TIME STEP  19 IN STRESS PERIOD    2
  ---------------------------------------------------------------------------

           1       2       3       4       5       6       7       8       9      10      11      12      13      14      15
 ...........................................................................................................................
   1  133.376 135.133 136.818 138.764 142.647 146.657 150.165 153.014 155.184 156.702 157.630 158.064 158.139 158.028 157.910
   2  133.178 134.583 135.199 134.581 141.039 146.103 149.945 152.879 155.044 156.511 157.350 157.658 157.573 157.296 157.061
   3  132.994 133.897 131.846 114.500 137.688 145.385 149.695 152.691 154.809 156.168 156.834 156.889 156.469 155.815 155.297
   4  133.157 134.550 135.149 134.508 140.934 145.952 149.724 152.548 154.542 155.744 156.173 155.866 154.921 153.600 152.502
   5  133.336 135.072 136.725 138.629 142.454 146.381 149.762 152.414 154.280 155.324 155.510 154.801 153.190 150.851 148.747
   6  133.322 135.050 136.694 138.585 142.394 146.299 149.649 152.257 154.059 155.003 155.028 154.031 151.874 148.587 147.396
   7  133.117 134.489 135.058 134.380 140.759 145.715 149.400 152.099 153.914 154.851 154.873 153.901 151.818 148.668 147.686
   8  132.931 133.802 131.705 114.299 137.416 145.018 149.195 152.005 153.864 154.862 155.018 154.356 152.973 151.258 150.457
   9  133.100 134.464 135.022 134.332 140.699 145.644 149.323 152.031 153.891 154.952 155.261 154.904 154.061 153.089 152.538
  10  133.289 135.001 136.624 138.490 142.273 146.151 149.480 152.084 153.929 155.027 155.427 155.240 154.661 153.993 153.581
1
  HEAD IN LAYER   4 AT END OF TIME STEP  19 IN STRESS PERIOD    2
  ---------------------------------------------------------------------------

           1       2       3       4       5       6       7       8       9      10      11      12      13      14      15
 ...........................................................................................................................
   1  133.796 135.064 136.518 138.463 142.168 146.133 149.657 152.528 154.714 156.245 157.185 157.633 157.727 157.635 157.532
   2  133.587 134.554 135.170 135.480 140.823 145.615 149.439 152.393 154.576 156.058 156.913 157.244 157.192 156.953 156.748
   3  133.404 133.984 132.881 124.741 138.527 145.011 149.199 152.207 154.344 155.723 156.415 156.513 156.163 155.603 155.168
   4  133.563 134.520 135.120 135.407 140.719 145.465 149.219 152.065 154.082 155.310 155.782 155.556 154.758 153.670 152.813
   5  133.750 135.000 136.425 138.329 141.977 145.858 149.255 151.934 153.826 154.903 155.153 154.580 153.254 151.447 149.971
   6  133.734 134.978 136.394 138.285 141.917 145.776 149.143 151.779 153.607 154.591 154.696 153.887 152.166 149.784 148.725
   7  133.517 134.456 135.029 135.280 140.545 145.229 148.895 151.619 153.461 154.438 154.538 153.747 152.086 149.817 148.911
   8  133.332 133.884 132.740 124.542 138.256 144.645 148.700 151.525 153.408 154.438 154.652 154.105 152.943 151.554 150.838
   9  133.497 134.429 134.992 135.232 140.485 145.157 148.817 151.548 153.431 154.517 154.864 154.571 153.830 152.977 152.476
  10  133.696 134.926 136.322 138.190 141.795 145.628 148.972 151.601 153.467 154.585 155.013 154.866 154.343 153.732 153.350
1
  HEAD IN LAYER   5 AT END OF TIME STEP  19 IN STRESS PERIOD    2
  ---------------------------------------------------------------------------

           1       2       3       4       5       6       7       8       9      10      11      12      13      14      15
 ...........................................................................................................................
   1  134.088 135.016 136.309 138.254 141.835 145.768 149.302 152.190 154.387 155.927 156.875 157.334 157.441 157.363 157.268
   2  133.872 134.533 135.150 136.106 140.673 145.276 149.087 152.055 154.250 155.742 156.609 156.956 156.927 156.714 156.530
   3  133.689 134.044 133.602 131.870 139.110 144.750 148.854 151.870 154.021 155.412 156.123 156.251 155.950 155.455 155.078
   4  133.846 134.498 135.100 136.034 140.570 145.127 148.867 151.730 153.762 155.007 155.510 155.340 154.645 153.718 153.030
   5  134.038 134.950 136.216 138.120 141.644 145.493 148.903 151.600 153.509 154.610 154.904 154.426 153.298 151.861 150.822
   6  134.021 134.928 136.185 138.076 141.585 145.412 148.791 151.445 153.293 154.304 154.465 153.786 152.370 150.617 149.650
   7  133.795 134.433 135.009 135.907 140.397 144.890 148.544 151.285 153.146 154.150 154.305 153.639 152.273 150.616 149.764
   8  133.611 133.942 133.460 131.673 138.841 144.385 148.356 151.190 153.091 154.143 154.397 153.930 152.921 151.760 151.103
   9  133.774 134.405 134.972 135.859 140.336 144.819 148.466 151.212 153.111 154.214 154.587 154.339 153.669 152.900 152.433
  10  133.979 134.874 136.113 137.981 141.463 145.263 148.618 151.265 153.146 154.278 154.725 154.606 154.122 153.551 153.188
1
  VOLUME BUDGET FOR ENTIRE MODEL AT END OF TIME STEP   19, STRESS PERIOD   2
  ------------------------------------------------------------------------------

     CUMULATIVE VOLUME      L**3       RATES FOR THIS TIME STEP      L**3/T
     ------------------                 ------------------------

           IN:                                      IN:
           ---                                      ---
         STORAGE(SS) =       40871.6355           STORAGE(SS) =       2.6572E-03
         STORAGE(SY) =           0.0000           STORAGE(SY) =           0.0000
               WELLS =           0.0000                 WELLS =           0.0000
       RIVER LEAKAGE =           0.0000         RIVER LEAKAGE =           0.0000
            RECHARGE =    16605141.3335              RECHARGE =      145000.0000
       CONSTANT HEAD =           0.0000         CONSTANT HEAD =           0.0000

            TOTAL IN =    16646012.9691              TOTAL IN =      145000.0027

          OUT:                                     OUT:
          ----                                     ----
         STORAGE(SS) =       3.8568E-02           STORAGE(SS) =       2.2784E-04
         STORAGE(SY) =           0.0000           STORAGE(SY) =           0.0000
               WELLS =     7946275.1265                 WELLS =       70000.0000
       RIVER LEAKAGE =     4026914.9572         RIVER LEAKAGE =       34486.8544
            RECHARGE =           0.0000              RECHARGE =           0.0000
       CONSTANT HEAD =     4674159.8716         CONSTANT HEAD =       40526.5332

           TOTAL OUT =    16647349.9940             TOTAL OUT =      145013.3879

            IN - OUT =       -1337.0249              IN - OUT =         -13.3853

 PERCENT DISCREPANCY =          -0.01     PERCENT DISCREPANCY =          -0.01






         TIME SUMMARY AT END OF TIME STEP   19 IN STRESS PERIOD    2
                    SECONDS     MINUTES      HOURS       DAYS        YEARS
                    -----------------------------------------------------------
   TIME STEP LENGTH 1.06592E+06  17765.      296.09      12.337     3.37770E-02
 STRESS PERIOD TIME 9.80797E+06 1.63466E+05  2724.4      113.52     0.31080    
         TOTAL TIME 9.89437E+06 1.64906E+05  2748.4      114.52     0.31353    
1
  HEAD IN LAYER   1 AT END OF TIME STEP  20 IN STRESS PERIOD    2
  ---------------------------------------------------------------------------

           1       2       3       4       5       6       7       8       9      10      11      12      13      14      15
 ...........................................................................................................................
   1  130.361 136.002 139.222 142.076 145.780 149.514 152.789 155.490 157.583 159.050 159.929 160.303 160.304 160.114 159.939
   2  130.344 135.629 138.322 140.531 144.968 149.166 152.621 155.366 157.440 158.845 159.616 159.829 159.613 159.178 158.817
   3  130.328 135.251 137.145 137.525 143.916 148.800 152.431 155.184 157.194 158.470 159.029 158.906 158.200 157.148 156.255
   4  130.343 135.601 138.271 140.453 144.858 149.013 152.396 155.022 156.905 157.998 158.253 157.613 156.041 153.678 151.305
   5  130.358 135.950 139.129 141.936 145.581 149.233 152.378 154.868 156.621 157.525 157.449 156.168 153.290 148.097 140.000
   6  130.357 135.933 139.099 141.892 145.520 149.151 152.264 154.706 156.386 157.169 156.858 155.055 150.747 140.000 140.000
   7  130.340 135.551 138.182 140.321 144.679 148.774 152.068 154.561 156.246 157.022 156.718 154.962 150.762 140.000 140.000
   8  130.324 135.171 137.003 137.304 143.632 148.429 151.928 154.485 156.213 157.075 156.995 155.848 153.487 150.093 149.050
   9  130.339 135.530 138.146 140.270 144.618 148.705 151.996 154.504 156.254 157.211 157.365 156.744 155.474 153.980 153.249
  10  130.355 135.892 139.030 141.795 145.398 149.006 152.101 154.548 156.299 157.312 157.601 157.248 156.442 155.538 155.011
1
  HEAD IN LAYER   2 AT END OF TIME STEP  20 IN STRESS PERIOD    2
  ---------------------------------------------------------------------------

           1       2       3       4       5       6       7       8       9      10      11      12      13      14      15
 ...........................................................................................................................
   1  131.876 135.565 138.014 140.412 144.206 148.078 151.471 154.246 156.378 157.870 158.774 159.178 159.216 159.066 158.919
   2  131.768 135.104 136.753 137.541 142.993 147.627 151.277 154.116 156.236 157.672 158.478 158.738 158.588 158.232 157.935
   3  131.668 134.571 134.482 125.955 140.787 147.084 151.056 153.932 155.996 157.314 157.926 157.892 157.330 156.478 155.773
   4  131.757 135.073 136.702 137.466 142.886 147.475 151.053 153.779 155.718 156.865 157.208 156.735 155.478 153.638 151.906
   5  131.854 135.509 137.922 140.274 144.010 147.800 151.064 153.635 155.445 156.419 156.474 155.481 153.240 149.481 144.395
   6  131.847 135.489 137.891 140.230 143.949 147.718 150.950 153.476 155.217 156.081 155.938 154.541 151.313 144.315 143.717
   7  131.735 135.017 136.612 137.336 142.709 147.237 150.727 153.324 155.074 155.931 155.791 154.429 151.292 144.356 143.862
   8  131.634 134.483 134.340 125.745 140.509 146.715 150.555 153.239 155.033 155.963 156.001 155.099 153.229 150.678 149.757
   9  131.726 134.994 136.576 137.286 142.649 147.167 150.653 153.261 155.066 156.076 156.308 155.819 154.764 153.532 152.892
  10  131.829 135.444 137.821 140.135 143.828 147.572 150.784 153.309 155.108 156.164 156.509 156.239 155.547 154.762 154.293
1
  HEAD IN LAYER   3 AT END OF TIME STEP  20 IN STRESS PERIOD    2
  ---------------------------------------------------------------------------

           1       2       3       4       5       6       7       8       9      10      11      12      13      14      15
 ...........................................................................................................................
   1  133.376 135.133 136.818 138.764 142.647 146.657 150.165 153.014 155.184 156.702 157.630 158.064 158.139 158.028 157.910
   2  133.178 134.583 135.199 134.581 141.039 146.102 149.945 152.879 155.044 156.511 157.350 157.657 157.573 157.296 157.061
   3  132.994 133.897 131.846 114.500 137.688 145.385 149.695 152.691 154.809 156.168 156.834 156.889 156.469 155.815 155.297
   4  133.157 134.550 135.149 134.508 140.934 145.952 149.724 152.548 154.542 155.744 156.173 155.866 154.921 153.600 152.502
   5  133.336 135.072 136.725 138.629 142.454 146.381 149.762 152.414 154.280 155.324 155.510 154.801 153.190 150.851 148.747
   6  133.322 135.050 136.694 138.585 142.394 146.299 149.649 152.257 154.059 155.003 155.028 154.031 151.874 148.587 147.396
   7  133.117 134.489 135.058 134.380 140.759 145.715 149.399 152.099 153.914 154.851 154.873 153.901 151.818 148.668 147.686
   8  132.931 133.802 131.705 114.299 137.416 145.018 149.195 152.005 153.864 154.861 155.018 154.356 152.973 151.258 150.457
   9  133.100 134.464 135.022 134.332 140.699 145.644 149.323 152.031 153.891 154.952 155.261 154.904 154.061 153.089 152.538
  10  133.289 135.001 136.624 138.490 142.273 146.151 149.480 152.084 153.929 155.027 155.427 155.240 154.661 153.993 153.581
1
  HEAD IN LAYER   4 AT END OF TIME STEP  20 IN STRESS PERIOD    2
  ---------------------------------------------------------------------------

           1       2       3       4       5       6       7       8       9      10      11      12      13      14      15
 ...........................................................................................................................
   1  133.796 135.064 136.518 138.463 142.168 146.133 149.657 152.528 154.714 156.245 157.185 157.633 157.727 157.635 157.532
   2  133.587 134.554 135.170 135.480 140.823 145.615 149.439 152.393 154.576 156.058 156.913 157.244 157.192 156.953 156.748
   3  133.404 133.984 132.881 124.741 138.527 145.011 149.199 152.207 154.344 155.723 156.415 156.513 156.163 155.603 155.168
   4  133.563 134.519 135.120 135.407 140.719 145.465 149.219 152.065 154.082 155.310 155.782 155.556 154.758 153.670 152.813
   5  133.750 135.000 136.425 138.329 141.977 145.858 149.255 151.934 153.826 154.903 155.153 154.580 153.254 151.447 149.971
   6  133.734 134.978 136.394 138.285 141.917 145.776 149.143 151.779 153.607 154.591 154.696 153.887 152.166 149.784 148.725
   7  133.517 134.456 135.029 135.280 140.545 145.229 148.895 151.619 153.461 154.438 154.538 153.747 152.086 149.817 148.911
   8  133.332 133.884 132.739 124.542 138.256 144.645 148.700 151.525 153.408 154.438 154.652 154.105 152.943 151.554 150.838
   9  133.497 134.429 134.992 135.232 140.485 145.157 148.817 151.548 153.431 154.517 154.864 154.571 153.830 152.977 152.476
  10  133.696 134.926 136.322 138.190 141.795 145.628 148.972 151.601 153.467 154.585 155.013 154.866 154.343 153.732 153.350
1
  HEAD IN LAYER   5 AT END OF TIME STEP  20 IN STRESS PERIOD    2
  ---------------------------------------------------------------------------

           1       2       3       4       5       6       7       8       9      10      11      12      13      14      15
 ...........................................................................................................................
   1  134.088 135.016 136.309 138.254 141.835 145.768 149.302 152.190 154.387 155.927 156.875 157.334 157.441 157.363 157.268
   2  133.872 134.533 135.150 136.106 140.673 145.276 149.087 152.055 154.250 155.742 156.609 156.956 156.927 156.714 156.530
   3  133.689 134.044 133.602 131.870 139.110 144.750 148.854 151.870 154.021 155.412 156.123 156.251 155.950 155.455 155.078
   4  133.845 134.498 135.100 136.034 140.570 145.127 148.867 151.730 153.762 155.007 155.510 155.340 154.645 153.718 153.030
   5  134.038 134.950 136.216 138.120 141.644 145.493 148.903 151.600 153.509 154.610 154.904 154.426 153.298 151.861 150.822
   6  134.021 134.928 136.185 138.076 141.585 145.412 148.791 151.445 153.293 154.304 154.465 153.786 152.370 150.617 149.650
   7  133.795 134.433 135.009 135.907 140.397 144.890 148.544 151.285 153.146 154.150 154.305 153.639 152.273 150.616 149.764
   8  133.610 133.942 133.460 131.673 138.841 144.385 148.356 151.190 153.091 154.143 154.397 153.930 152.921 151.760 151.103
   9  133.774 134.405 134.972 135.859 140.336 144.819 148.466 151.212 153.111 154.214 154.587 154.339 153.669 152.900 152.433
  10  133.979 134.874 136.113 137.981 141.463 145.263 148.618 151.265 153.146 154.278 154.725 154.606 154.122 153.551 153.188
1
  VOLUME BUDGET FOR ENTIRE MODEL AT END OF TIME STEP   20, STRESS PERIOD   2
  ------------------------------------------------------------------------------

     CUMULATIVE VOLUME      L**3       RATES FOR THIS TIME STEP      L**3/T
     ------------------                 ------------------------

           IN:                                      IN:
           ---                                      ---
         STORAGE(SS) =       40871.6690           STORAGE(SS) =       2.4650E-03
         STORAGE(SY) =           0.0000           STORAGE(SY) =           0.0000
               WELLS =           0.0000                 WELLS =           0.0000
       RIVER LEAKAGE =           0.0000         RIVER LEAKAGE =           0.0000
            RECHARGE =    18572899.6807              RECHARGE =      145000.0000
       CONSTANT HEAD =           0.0000         CONSTANT HEAD =           0.0000

            TOTAL IN =    18613771.3496              TOTAL IN =      145000.0025

          OUT:                                     OUT:
          ----                                     ----
         STORAGE(SS) =       4.1092E-02           STORAGE(SS) =       1.8603E-04
         STORAGE(SY) =           0.0000           STORAGE(SY) =           0.0000
               WELLS =     8896227.4320                 WELLS =       70000.0000
       RIVER LEAKAGE =     4494926.9416         RIVER LEAKAGE =       34486.8250
            RECHARGE =           0.0000              RECHARGE =           0.0000
       CONSTANT HEAD =     5224135.0601         CONSTANT HEAD =       40526.5222

           TOTAL OUT =    18615289.4748             TOTAL OUT =      145013.3474

            IN - OUT =       -1518.1252              IN - OUT =         -13.3449

 PERCENT DISCREPANCY =          -0.01     PERCENT DISCREPANCY =          -0.01






         TIME SUMMARY AT END OF TIME STEP   20 IN STRESS PERIOD    2
                    SECONDS     MINUTES      HOURS       DAYS        YEARS
                    -----------------------------------------------------------
   TIME STEP LENGTH 1.17251E+06  19542.      325.70      13.571     3.71547E-02
 STRESS PERIOD TIME 1.09805E+07 1.83008E+05  3050.1      127.09     0.34795    
         TOTAL TIME 1.10669E+07 1.84448E+05  3074.1      128.09     0.35069    
1
  HEAD IN LAYER   1 AT END OF TIME STEP  21 IN STRESS PERIOD    2
  ---------------------------------------------------------------------------

           1       2       3       4       5       6       7       8       9      10      11      12      13      14      15
 ...........................................................................................................................
   1  130.361 136.002 139.222 142.076 145.780 149.514 152.789 155.490 157.583 159.050 159.929 160.303 160.304 160.114 159.939
   2  130.344 135.629 138.322 140.531 144.968 149.166 152.621 155.366 157.440 158.845 159.616 159.829 159.613 159.178 158.817
   3  130.328 135.251 137.145 137.525 143.916 148.800 152.431 155.184 157.194 158.470 159.029 158.906 158.200 157.148 156.255
   4  130.343 135.601 138.271 140.453 144.858 149.013 152.396 155.022 156.905 157.998 158.253 157.613 156.041 153.678 151.305
   5  130.358 135.950 139.129 141.936 145.581 149.233 152.378 154.868 156.621 157.525 157.449 156.168 153.290 148.097 140.000
   6  130.357 135.933 139.099 141.892 145.520 149.151 152.264 154.706 156.386 157.169 156.858 155.055 150.747 140.000 140.000
   7  130.340 135.551 138.182 140.321 144.679 148.774 152.068 154.561 156.246 157.022 156.718 154.962 150.762 140.000 140.000
   8  130.324 135.171 137.003 137.304 143.632 148.429 151.928 154.485 156.213 157.075 156.995 155.848 153.487 150.093 149.050
   9  130.339 135.530 138.146 140.270 144.618 148.705 151.996 154.504 156.254 157.211 157.365 156.744 155.474 153.980 153.249
  10  130.355 135.892 139.030 141.795 145.398 149.006 152.101 154.548 156.299 157.312 157.601 157.248 156.442 155.538 155.011
1
  HEAD IN LAYER   2 AT END OF TIME STEP  21 IN STRESS PERIOD    2
  ---------------------------------------------------------------------------

           1       2       3       4       5       6       7       8       9      10      11      12      13      14      15
 ...........................................................................................................................
   1  131.876 135.565 138.014 140.412 144.206 148.078 151.471 154.246 156.378 157.870 158.774 159.178 159.216 159.066 158.919
   2  131.768 135.104 136.753 137.541 142.993 147.627 151.277 154.116 156.236 157.672 158.478 158.738 158.588 158.232 157.935
   3  131.668 134.571 134.482 125.955 140.787 147.084 151.056 153.932 155.996 157.314 157.926 157.892 157.330 156.478 155.773
   4  131.757 135.073 136.702 137.466 142.886 147.475 151.053 153.779 155.718 156.865 157.208 156.735 155.478 153.638 151.906
   5  131.854 135.509 137.921 140.274 144.010 147.800 151.064 153.635 155.445 156.419 156.474 155.481 153.240 149.481 144.395
   6  131.847 135.489 137.891 140.230 143.949 147.718 150.950 153.476 155.217 156.081 155.938 154.541 151.313 144.315 143.717
   7  131.735 135.017 136.612 137.336 142.709 147.237 150.727 153.324 155.074 155.931 155.791 154.429 151.292 144.356 143.862
   8  131.634 134.483 134.340 125.745 140.509 146.715 150.555 153.239 155.033 155.963 156.001 155.099 153.229 150.678 149.757
   9  131.726 134.994 136.576 137.286 142.649 147.167 150.653 153.261 155.066 156.076 156.308 155.819 154.764 153.532 152.892
  10  131.829 135.444 137.821 140.135 143.828 147.572 150.784 153.309 155.108 156.164 156.509 156.239 155.547 154.762 154.293
1
  HEAD IN LAYER   3 AT END OF TIME STEP  21 IN STRESS PERIOD    2
  ---------------------------------------------------------------------------

           1       2       3       4       5       6       7       8       9      10      11      12      13      14      15
 ...........................................................................................................................
   1  133.376 135.133 136.818 138.764 142.647 146.657 150.165 153.014 155.184 156.702 157.630 158.064 158.139 158.028 157.910
   2  133.178 134.583 135.199 134.581 141.039 146.102 149.945 152.879 155.044 156.511 157.350 157.657 157.573 157.296 157.061
   3  132.994 133.897 131.846 114.500 137.688 145.385 149.695 152.691 154.809 156.168 156.834 156.889 156.469 155.815 155.297
   4  133.157 134.550 135.149 134.508 140.934 145.952 149.724 152.548 154.542 155.744 156.173 155.866 154.921 153.600 152.502
   5  133.336 135.072 136.725 138.629 142.454 146.381 149.762 152.414 154.280 155.324 155.510 154.801 153.190 150.851 148.747
   6  133.322 135.050 136.694 138.585 142.394 146.299 149.649 152.257 154.059 155.003 155.028 154.031 151.874 148.587 147.396
   7  133.117 134.489 135.058 134.380 140.759 145.715 149.399 152.099 153.914 154.851 154.873 153.901 151.818 148.668 147.686
   8  132.931 133.802 131.704 114.299 137.416 145.018 149.195 152.005 153.864 154.861 155.018 154.356 152.973 151.258 150.457
   9  133.100 134.464 135.022 134.332 140.699 145.644 149.323 152.031 153.891 154.952 155.261 154.904 154.061 153.089 152.538
  10  133.289 135.001 136.624 138.490 142.273 146.151 149.480 152.084 153.929 155.027 155.427 155.240 154.661 153.993 153.581
1
  HEAD IN LAYER   4 AT END OF TIME STEP  21 IN STRESS PERIOD    2
  ---------------------------------------------------------------------------

           1       2       3       4       5       6       7       8       9      10      11      12      13      14      15
 ...........................................................................................................................
   1  133.796 135.064 136.518 138.463 142.168 146.133 149.657 152.528 154.714 156.245 157.185 157.633 157.727 157.635 157.532
   2  133.587 134.554 135.170 135.480 140.823 145.615 149.439 152.393 154.576 156.058 156.913 157.244 157.192 156.953 156.748
   3  133.404 133.984 132.881 124.741 138.527 145.011 149.199 152.207 154.344 155.723 156.415 156.513 156.163 155.603 155.168
   4  133.563 134.519 135.120 135.407 140.719 145.465 149.219 152.065 154.082 155.310 155.782 155.556 154.758 153.670 152.813
   5  133.750 135.000 136.425 138.329 141.977 145.857 149.255 151.934 153.826 154.903 155.153 154.580 153.254 151.447 149.971
   6  133.734 134.978 136.394 138.285 141.917 145.776 149.143 151.779 153.607 154.591 154.696 153.887 152.166 149.784 148.725
   7  133.517 134.456 135.029 135.280 140.545 145.229 148.895 151.619 153.461 154.438 154.538 153.747 152.086 149.817 148.911
   8  133.332 133.884 132.739 124.542 138.256 144.645 148.700 151.525 153.408 154.438 154.652 154.105 152.943 151.554 150.838
   9  133.497 134.429 134.992 135.232 140.485 145.157 148.817 151.548 153.431 154.517 154.864 154.571 153.830 152.977 152.476
  10  133.696 134.926 136.322 138.190 141.795 145.627 148.972 151.601 153.467 154.585 155.013 154.866 154.343 153.732 153.350
1
  HEAD IN LAYER   5 AT END OF TIME STEP  21 IN STRESS PERIOD    2
  ---------------------------------------------------------------------------

           1       2       3       4       5       6       7       8       9      10      11      12      13      14      15
 ...........................................................................................................................
   1  134.088 135.016 136.309 138.254 141.835 145.768 149.302 152.190 154.387 155.927 156.875 157.334 157.441 157.363 157.268
   2  133.872 134.533 135.150 136.106 140.673 145.276 149.087 152.055 154.250 155.742 156.609 156.956 156.927 156.714 156.530
   3  133.689 134.044 133.602 131.870 139.110 144.750 148.854 151.870 154.021 155.412 156.123 156.251 155.950 155.455 155.078
   4  133.845 134.498 135.100 136.034 140.570 145.127 148.867 151.730 153.762 155.007 155.509 155.340 154.645 153.718 153.030
   5  134.038 134.950 136.216 138.120 141.644 145.493 148.903 151.600 153.509 154.610 154.904 154.426 153.298 151.861 150.822
   6  134.021 134.928 136.185 138.076 141.585 145.412 148.791 151.445 153.293 154.304 154.465 153.786 152.370 150.617 149.650
   7  133.795 134.433 135.008 135.907 140.397 144.890 148.544 151.285 153.146 154.150 154.305 153.639 152.273 150.616 149.764
   8  133.610 133.942 133.460 131.673 138.841 144.385 148.356 151.190 153.091 154.143 154.397 153.930 152.921 151.760 151.103
   9  133.774 134.405 134.972 135.859 140.336 144.819 148.466 151.212 153.111 154.214 154.587 154.339 153.669 152.900 152.433
  10  133.979 134.874 136.113 137.981 141.463 145.263 148.618 151.265 153.146 154.278 154.725 154.606 154.122 153.551 153.188
1
  VOLUME BUDGET FOR ENTIRE MODEL AT END OF TIME STEP   21, STRESS PERIOD   2
  ------------------------------------------------------------------------------

     CUMULATIVE VOLUME      L**3       RATES FOR THIS TIME STEP      L**3/T
     ------------------                 ------------------------

           IN:                                      IN:
           ---                                      ---
         STORAGE(SS) =       40871.7012           STORAGE(SS) =       2.1566E-03
         STORAGE(SY) =           0.0000           STORAGE(SY) =           0.0000
               WELLS =           0.0000                 WELLS =           0.0000
       RIVER LEAKAGE =           0.0000         RIVER LEAKAGE =           0.0000
            RECHARGE =    20737433.8625              RECHARGE =      145000.0000
       CONSTANT HEAD =           0.0000         CONSTANT HEAD =           0.0000

            TOTAL IN =    20778305.5637              TOTAL IN =      145000.0022

          OUT:                                     OUT:
          ----                                     ----
         STORAGE(SS) =       4.3799E-02           STORAGE(SS) =       1.8130E-04
         STORAGE(SY) =           0.0000           STORAGE(SY) =           0.0000
               WELLS =     9941174.9681                 WELLS =       70000.0000
       RIVER LEAKAGE =     5009739.7928         RIVER LEAKAGE =       34486.8028
            RECHARGE =           0.0000              RECHARGE =           0.0000
       CONSTANT HEAD =     5829107.2993         CONSTANT HEAD =       40526.4908

           TOTAL OUT =    20780022.1040             TOTAL OUT =      145013.2938

            IN - OUT =       -1716.5403              IN - OUT =         -13.2916

 PERCENT DISCREPANCY =          -0.01     PERCENT DISCREPANCY =          -0.01






         TIME SUMMARY AT END OF TIME STEP   21 IN STRESS PERIOD    2
                    SECONDS     MINUTES      HOURS       DAYS        YEARS
                    -----------------------------------------------------------
   TIME STEP LENGTH 1.28976E+06  21496.      358.27      14.928     4.08701E-02
 STRESS PERIOD TIME 1.22703E+07 2.04504E+05  3408.4      142.02     0.38882    
         TOTAL TIME 1.23567E+07 2.05944E+05  3432.4      143.02     0.39156    
1
  HEAD IN LAYER   1 AT END OF TIME STEP  22 IN STRESS PERIOD    2
  ---------------------------------------------------------------------------

           1       2       3       4       5       6       7       8       9      10      11      12      13      14      15
 ...........................................................................................................................
   1  130.361 136.002 139.222 142.076 145.780 149.514 152.789 155.490 157.583 159.050 159.929 160.303 160.304 160.114 159.939
   2  130.344 135.629 138.322 140.531 144.968 149.166 152.621 155.366 157.440 158.845 159.616 159.829 159.613 159.178 158.817
   3  130.328 135.251 137.145 137.525 143.916 148.800 152.431 155.184 157.194 158.470 159.029 158.906 158.200 157.148 156.255
   4  130.343 135.601 138.271 140.453 144.858 149.013 152.396 155.022 156.905 157.998 158.253 157.613 156.041 153.678 151.305
   5  130.358 135.950 139.129 141.936 145.581 149.233 152.378 154.868 156.621 157.525 157.449 156.168 153.290 148.097 140.000
   6  130.357 135.933 139.099 141.892 145.520 149.151 152.264 154.706 156.386 157.168 156.858 155.055 150.747 140.000 140.000
   7  130.340 135.551 138.182 140.321 144.679 148.774 152.068 154.561 156.246 157.022 156.718 154.962 150.762 140.000 140.000
   8  130.324 135.171 137.003 137.304 143.632 148.429 151.928 154.485 156.213 157.075 156.995 155.848 153.487 150.093 149.050
   9  130.339 135.530 138.146 140.270 144.618 148.705 151.996 154.504 156.254 157.211 157.365 156.744 155.474 153.980 153.249
  10  130.355 135.892 139.030 141.795 145.398 149.006 152.101 154.548 156.299 157.312 157.601 157.248 156.442 155.538 155.011
1
  HEAD IN LAYER   2 AT END OF TIME STEP  22 IN STRESS PERIOD    2
  ---------------------------------------------------------------------------

           1       2       3       4       5       6       7       8       9      10      11      12      13      14      15
 ...........................................................................................................................
   1  131.876 135.565 138.014 140.412 144.206 148.078 151.471 154.246 156.378 157.870 158.774 159.178 159.216 159.066 158.919
   2  131.768 135.104 136.753 137.541 142.993 147.627 151.277 154.116 156.236 157.672 158.478 158.738 158.588 158.232 157.935
   3  131.668 134.571 134.482 125.955 140.787 147.084 151.056 153.932 155.996 157.314 157.926 157.892 157.330 156.478 155.773
   4  131.757 135.073 136.702 137.466 142.886 147.475 151.053 153.779 155.718 156.865 157.208 156.735 155.478 153.638 151.906
   5  131.854 135.509 137.921 140.274 144.010 147.800 151.064 153.635 155.445 156.419 156.474 155.481 153.240 149.481 144.395
   6  131.847 135.489 137.891 140.230 143.949 147.718 150.950 153.476 155.217 156.081 155.938 154.541 151.313 144.315 143.717
   7  131.735 135.017 136.612 137.336 142.709 147.237 150.727 153.324 155.074 155.931 155.791 154.429 151.292 144.356 143.862
   8  131.634 134.483 134.340 125.745 140.509 146.715 150.555 153.239 155.033 155.963 156.001 155.099 153.229 150.678 149.757
   9  131.726 134.994 136.576 137.286 142.649 147.167 150.653 153.261 155.066 156.076 156.308 155.819 154.764 153.532 152.892
  10  131.829 135.444 137.821 140.135 143.828 147.572 150.784 153.309 155.108 156.164 156.509 156.239 155.547 154.762 154.293
1
  HEAD IN LAYER   3 AT END OF TIME STEP  22 IN STRESS PERIOD    2
  ---------------------------------------------------------------------------

           1       2       3       4       5       6       7       8       9      10      11      12      13      14      15
 ...........................................................................................................................
   1  133.376 135.133 136.818 138.764 142.647 146.657 150.165 153.014 155.184 156.702 157.630 158.064 158.139 158.028 157.910
   2  133.178 134.583 135.199 134.581 141.039 146.102 149.945 152.879 155.044 156.511 157.350 157.657 157.573 157.296 157.061
   3  132.994 133.897 131.846 114.500 137.688 145.385 149.695 152.691 154.809 156.168 156.834 156.889 156.469 155.815 155.297
   4  133.157 134.550 135.149 134.508 140.934 145.952 149.724 152.548 154.542 155.744 156.173 155.866 154.921 153.600 152.502
   5  133.336 135.072 136.725 138.629 142.454 146.381 149.762 152.414 154.280 155.324 155.510 154.801 153.190 150.851 148.747
   6  133.322 135.050 136.694 138.585 142.394 146.299 149.649 152.257 154.059 155.003 155.028 154.031 151.874 148.587 147.396
   7  133.117 134.489 135.058 134.380 140.759 145.715 149.399 152.099 153.914 154.851 154.873 153.901 151.818 148.668 147.686
   8  132.931 133.802 131.704 114.299 137.416 145.018 149.195 152.005 153.864 154.861 155.018 154.356 152.973 151.258 150.457
   9  133.100 134.464 135.022 134.332 140.699 145.644 149.322 152.031 153.891 154.952 155.261 154.904 154.061 153.089 152.538
  10  133.289 135.001 136.624 138.490 142.273 146.151 149.480 152.084 153.929 155.027 155.427 155.240 154.661 153.993 153.581
1
  HEAD IN LAYER   4 AT END OF TIME STEP  22 IN STRESS PERIOD    2
  ---------------------------------------------------------------------------

           1       2       3       4       5       6       7       8       9      10      11      12      13      14      15
 ...........................................................................................................................
   1  133.796 135.064 136.518 138.463 142.168 146.133 149.657 152.528 154.714 156.245 157.185 157.633 157.727 157.635 157.532
   2  133.587 134.554 135.170 135.480 140.823 145.615 149.439 152.393 154.576 156.058 156.913 157.244 157.192 156.953 156.748
   3  133.404 133.984 132.881 124.741 138.527 145.011 149.199 152.207 154.344 155.723 156.415 156.513 156.163 155.603 155.168
   4  133.563 134.519 135.120 135.407 140.719 145.465 149.219 152.065 154.082 155.310 155.782 155.556 154.758 153.670 152.813
   5  133.750 135.000 136.425 138.329 141.977 145.857 149.255 151.934 153.826 154.903 155.153 154.580 153.254 151.447 149.971
   6  133.734 134.978 136.394 138.285 141.917 145.776 149.143 151.779 153.607 154.591 154.696 153.887 152.166 149.784 148.725
   7  133.517 134.456 135.029 135.280 140.545 145.229 148.895 151.619 153.461 154.438 154.538 153.747 152.086 149.817 148.911
   8  133.332 133.884 132.739 124.542 138.256 144.645 148.700 151.525 153.408 154.438 154.652 154.105 152.943 151.554 150.838
   9  133.497 134.429 134.992 135.232 140.485 145.157 148.817 151.548 153.431 154.517 154.864 154.571 153.830 152.977 152.476
  10  133.696 134.926 136.322 138.190 141.795 145.627 148.972 151.601 153.467 154.585 155.013 154.866 154.343 153.732 153.350
1
  HEAD IN LAYER   5 AT END OF TIME STEP  22 IN STRESS PERIOD    2
  ---------------------------------------------------------------------------

           1       2       3       4       5       6       7       8       9      10      11      12      13      14      15
 ...........................................................................................................................
   1  134.088 135.016 136.309 138.254 141.835 145.768 149.302 152.190 154.387 155.927 156.875 157.334 157.441 157.363 157.268
   2  133.872 134.533 135.150 136.106 140.673 145.276 149.087 152.055 154.250 155.742 156.609 156.956 156.927 156.714 156.530
   3  133.689 134.044 133.602 131.870 139.110 144.750 148.854 151.870 154.021 155.412 156.123 156.251 155.950 155.455 155.078
   4  133.845 134.498 135.100 136.034 140.570 145.126 148.867 151.729 153.762 155.007 155.510 155.340 154.645 153.718 153.030
   5  134.038 134.950 136.216 138.120 141.644 145.493 148.903 151.600 153.509 154.610 154.904 154.426 153.298 151.861 150.822
   6  134.021 134.928 136.185 138.076 141.585 145.412 148.791 151.445 153.293 154.304 154.465 153.786 152.370 150.617 149.650
   7  133.795 134.433 135.008 135.907 140.397 144.890 148.544 151.285 153.146 154.150 154.305 153.639 152.273 150.616 149.764
   8  133.610 133.942 133.460 131.673 138.841 144.385 148.356 151.190 153.091 154.143 154.397 153.930 152.921 151.760 151.103
   9  133.773 134.405 134.972 135.859 140.336 144.819 148.466 151.212 153.111 154.214 154.587 154.339 153.669 152.900 152.432
  10  133.979 134.874 136.113 137.981 141.463 145.263 148.618 151.265 153.146 154.278 154.725 154.606 154.122 153.551 153.188
1
  VOLUME BUDGET FOR ENTIRE MODEL AT END OF TIME STEP   22, STRESS PERIOD   2
  ------------------------------------------------------------------------------

     CUMULATIVE VOLUME      L**3       RATES FOR THIS TIME STEP      L**3/T
     ------------------                 ------------------------

           IN:                                      IN:
           ---                                      ---
         STORAGE(SS) =       40871.7340           STORAGE(SS) =       2.0003E-03
         STORAGE(SY) =           0.0000           STORAGE(SY) =           0.0000
               WELLS =           0.0000                 WELLS =           0.0000
       RIVER LEAKAGE =           0.0000         RIVER LEAKAGE =           0.0000
            RECHARGE =    23118421.4625              RECHARGE =      145000.0000
       CONSTANT HEAD =           0.0000         CONSTANT HEAD =           0.0000

            TOTAL IN =    23159293.1965              TOTAL IN =      145000.0020

          OUT:                                     OUT:
          ----                                     ----
         STORAGE(SS) =       4.6255E-02           STORAGE(SS) =       1.4959E-04
         STORAGE(SY) =           0.0000           STORAGE(SY) =           0.0000
               WELLS =    11090617.2578                 WELLS =       70000.0000
       RIVER LEAKAGE =     5576033.4620         RIVER LEAKAGE =       34486.7743
            RECHARGE =           0.0000              RECHARGE =           0.0000
       CONSTANT HEAD =     6494576.5784         CONSTANT HEAD =       40526.4796

           TOTAL OUT =    23161227.3444             TOTAL OUT =      145013.2541

            IN - OUT =       -1934.1478              IN - OUT =         -13.2521

 PERCENT DISCREPANCY =          -0.01     PERCENT DISCREPANCY =          -0.01






         TIME SUMMARY AT END OF TIME STEP   22 IN STRESS PERIOD    2
                    SECONDS     MINUTES      HOURS       DAYS        YEARS
                    -----------------------------------------------------------
   TIME STEP LENGTH 1.41874E+06  23646.      394.09      16.421     4.49572E-02
 STRESS PERIOD TIME 1.36890E+07 2.28150E+05  3802.5      158.44     0.43378    
         TOTAL TIME 1.37754E+07 2.29590E+05  3826.5      159.44     0.43652    
1
  HEAD IN LAYER   1 AT END OF TIME STEP  23 IN STRESS PERIOD    2
  ---------------------------------------------------------------------------

           1       2       3       4       5       6       7       8       9      10      11      12      13      14      15
 ...........................................................................................................................
   1  130.361 136.002 139.222 142.076 145.780 149.513 152.789 155.490 157.583 159.050 159.929 160.303 160.304 160.114 159.939
   2  130.344 135.629 138.322 140.531 144.968 149.166 152.621 155.366 157.440 158.845 159.616 159.829 159.613 159.178 158.817
   3  130.328 135.251 137.145 137.525 143.916 148.800 152.431 155.184 157.194 158.470 159.029 158.906 158.200 157.148 156.255
   4  130.343 135.601 138.271 140.453 144.858 149.013 152.396 155.022 156.905 157.998 158.253 157.613 156.041 153.678 151.305
   5  130.358 135.950 139.129 141.936 145.581 149.233 152.378 154.868 156.621 157.525 157.449 156.168 153.290 148.097 140.000
   6  130.357 135.933 139.099 141.892 145.520 149.151 152.264 154.706 156.386 157.168 156.858 155.055 150.747 140.000 140.000
   7  130.340 135.551 138.182 140.321 144.679 148.774 152.068 154.561 156.246 157.022 156.718 154.962 150.762 140.000 140.000
   8  130.324 135.171 137.003 137.304 143.632 148.429 151.928 154.485 156.213 157.075 156.995 155.848 153.487 150.093 149.050
   9  130.339 135.530 138.146 140.270 144.618 148.705 151.996 154.504 156.254 157.211 157.365 156.744 155.474 153.980 153.249
  10  130.355 135.892 139.030 141.795 145.398 149.006 152.101 154.548 156.299 157.312 157.601 157.248 156.442 155.538 155.011
1
  HEAD IN LAYER   2 AT END OF TIME STEP  23 IN STRESS PERIOD    2
  ---------------------------------------------------------------------------

           1       2       3       4       5       6       7       8       9      10      11      12      13      14      15
 ...........................................................................................................................
   1  131.876 135.565 138.014 140.412 144.206 148.078 151.471 154.246 156.377 157.870 158.774 159.178 159.216 159.066 158.919
   2  131.768 135.104 136.753 137.541 142.993 147.627 151.277 154.116 156.236 157.672 158.478 158.738 158.588 158.232 157.935
   3  131.668 134.571 134.482 125.955 140.787 147.084 151.056 153.932 155.996 157.314 157.926 157.892 157.330 156.478 155.773
   4  131.757 135.073 136.702 137.466 142.886 147.475 151.053 153.779 155.718 156.865 157.208 156.735 155.478 153.638 151.906
   5  131.854 135.509 137.921 140.274 144.010 147.800 151.064 153.635 155.445 156.419 156.474 155.481 153.240 149.481 144.395
   6  131.847 135.489 137.891 140.230 143.949 147.718 150.950 153.476 155.217 156.081 155.938 154.541 151.313 144.315 143.717
   7  131.735 135.017 136.612 137.336 142.709 147.237 150.727 153.324 155.074 155.931 155.791 154.429 151.292 144.356 143.862
   8  131.634 134.483 134.340 125.745 140.509 146.715 150.555 153.239 155.033 155.963 156.001 155.099 153.229 150.678 149.757
   9  131.726 134.994 136.576 137.286 142.648 147.167 150.653 153.261 155.066 156.076 156.308 155.819 154.764 153.532 152.892
  10  131.829 135.444 137.821 140.135 143.828 147.572 150.784 153.309 155.108 156.164 156.509 156.239 155.547 154.762 154.293
1
  HEAD IN LAYER   3 AT END OF TIME STEP  23 IN STRESS PERIOD    2
  ---------------------------------------------------------------------------

           1       2       3       4       5       6       7       8       9      10      11      12      13      14      15
 ...........................................................................................................................
   1  133.376 135.133 136.818 138.764 142.647 146.657 150.165 153.014 155.184 156.702 157.630 158.064 158.139 158.028 157.910
   2  133.178 134.583 135.199 134.581 141.039 146.102 149.945 152.879 155.044 156.511 157.350 157.657 157.573 157.296 157.061
   3  132.994 133.897 131.846 114.500 137.688 145.385 149.695 152.691 154.809 156.168 156.834 156.889 156.469 155.815 155.297
   4  133.157 134.550 135.149 134.508 140.934 145.952 149.724 152.548 154.542 155.744 156.173 155.866 154.921 153.600 152.502
   5  133.336 135.071 136.725 138.629 142.454 146.381 149.762 152.414 154.280 155.324 155.510 154.801 153.190 150.851 148.747
   6  133.322 135.050 136.694 138.585 142.394 146.299 149.649 152.257 154.059 155.003 155.028 154.031 151.874 148.587 147.396
   7  133.117 134.489 135.058 134.380 140.759 145.715 149.399 152.099 153.914 154.851 154.873 153.901 151.818 148.668 147.686
   8  132.931 133.802 131.704 114.299 137.416 145.018 149.195 152.005 153.864 154.861 155.018 154.356 152.973 151.258 150.457
   9  133.100 134.464 135.022 134.332 140.699 145.644 149.322 152.031 153.891 154.952 155.261 154.904 154.061 153.089 152.538
  10  133.289 135.001 136.624 138.490 142.273 146.151 149.480 152.084 153.929 155.027 155.427 155.240 154.661 153.993 153.581
1
  HEAD IN LAYER   4 AT END OF TIME STEP  23 IN STRESS PERIOD    2
  ---------------------------------------------------------------------------

           1       2       3       4       5       6       7       8       9      10      11      12      13      14      15
 ...........................................................................................................................
   1  133.796 135.064 136.518 138.463 142.168 146.133 149.657 152.528 154.714 156.245 157.185 157.633 157.727 157.635 157.532
   2  133.587 134.554 135.170 135.480 140.823 145.615 149.439 152.393 154.576 156.058 156.913 157.244 157.192 156.953 156.748
   3  133.404 133.984 132.881 124.741 138.527 145.011 149.199 152.207 154.344 155.723 156.415 156.513 156.163 155.603 155.168
   4  133.563 134.519 135.120 135.407 140.719 145.465 149.219 152.065 154.082 155.310 155.782 155.556 154.758 153.670 152.813
   5  133.750 135.000 136.425 138.329 141.977 145.857 149.255 151.934 153.826 154.903 155.153 154.580 153.254 151.447 149.971
   6  133.734 134.978 136.394 138.285 141.917 145.776 149.143 151.779 153.607 154.591 154.696 153.887 152.166 149.784 148.725
   7  133.517 134.456 135.029 135.280 140.545 145.229 148.895 151.619 153.461 154.438 154.538 153.747 152.086 149.817 148.911
   8  133.332 133.884 132.739 124.542 138.256 144.645 148.700 151.525 153.408 154.438 154.652 154.105 152.943 151.554 150.838
   9  133.497 134.429 134.992 135.232 140.485 145.157 148.817 151.548 153.431 154.517 154.864 154.571 153.830 152.977 152.476
  10  133.696 134.926 136.322 138.190 141.795 145.627 148.972 151.601 153.467 154.585 155.013 154.866 154.343 153.732 153.350
1
  HEAD IN LAYER   5 AT END OF TIME STEP  23 IN STRESS PERIOD    2
  ---------------------------------------------------------------------------

           1       2       3       4       5       6       7       8       9      10      11      12      13      14      15
 ...........................................................................................................................
   1  134.088 135.016 136.309 138.254 141.835 145.768 149.302 152.190 154.387 155.927 156.875 157.334 157.441 157.363 157.268
   2  133.872 134.533 135.150 136.106 140.673 145.276 149.087 152.055 154.250 155.742 156.609 156.956 156.927 156.714 156.530
   3  133.689 134.044 133.602 131.870 139.110 144.750 148.854 151.870 154.021 155.412 156.123 156.251 155.950 155.455 155.078
   4  133.845 134.498 135.100 136.034 140.570 145.126 148.867 151.729 153.762 155.007 155.509 155.340 154.645 153.718 153.030
   5  134.038 134.950 136.216 138.120 141.644 145.493 148.903 151.600 153.509 154.610 154.904 154.426 153.298 151.861 150.822
   6  134.021 134.928 136.185 138.076 141.584 145.412 148.791 151.445 153.293 154.304 154.465 153.786 152.370 150.617 149.650
   7  133.795 134.433 135.008 135.907 140.397 144.890 148.544 151.285 153.146 154.150 154.305 153.639 152.273 150.616 149.764
   8  133.610 133.942 133.460 131.673 138.841 144.385 148.356 151.190 153.091 154.143 154.397 153.930 152.921 151.760 151.103
   9  133.773 134.405 134.972 135.859 140.336 144.819 148.466 151.212 153.111 154.214 154.587 154.339 153.669 152.900 152.432
  10  133.979 134.874 136.113 137.981 141.463 145.263 148.618 151.265 153.146 154.278 154.725 154.606 154.122 153.551 153.188
1
  VOLUME BUDGET FOR ENTIRE MODEL AT END OF TIME STEP   23, STRESS PERIOD   2
  ------------------------------------------------------------------------------

     CUMULATIVE VOLUME      L**3       RATES FOR THIS TIME STEP      L**3/T
     ------------------                 ------------------------

           IN:                                      IN:
           ---                                      ---
         STORAGE(SS) =       40871.7657           STORAGE(SS) =       1.7530E-03
         STORAGE(SY) =           0.0000           STORAGE(SY) =           0.0000
               WELLS =           0.0000                 WELLS =           0.0000
       RIVER LEAKAGE =           0.0000         RIVER LEAKAGE =           0.0000
            RECHARGE =    25737507.8226              RECHARGE =      145000.0000
       CONSTANT HEAD =           0.0000         CONSTANT HEAD =           0.0000

            TOTAL IN =    25778379.5882              TOTAL IN =      145000.0018

          OUT:                                     OUT:
          ----                                     ----
         STORAGE(SS) =       4.8863E-02           STORAGE(SS) =       1.4441E-04
         STORAGE(SY) =           0.0000           STORAGE(SY) =           0.0000
               WELLS =    12355003.7764                 WELLS =       70000.0000
       RIVER LEAKAGE =     6198956.0941         RIVER LEAKAGE =       34486.7520
            RECHARGE =           0.0000              RECHARGE =           0.0000
       CONSTANT HEAD =     7226592.2206         CONSTANT HEAD =       40526.4484

           TOTAL OUT =    25780552.1400             TOTAL OUT =      145013.2005

            IN - OUT =       -2172.5517              IN - OUT =         -13.1987

 PERCENT DISCREPANCY =          -0.01     PERCENT DISCREPANCY =          -0.01






         TIME SUMMARY AT END OF TIME STEP   23 IN STRESS PERIOD    2
                    SECONDS     MINUTES      HOURS       DAYS        YEARS
                    -----------------------------------------------------------
   TIME STEP LENGTH 1.56061E+06  26010.      433.50      18.063     4.94529E-02
 STRESS PERIOD TIME 1.52496E+07 2.54160E+05  4236.0      176.50     0.48323    
         TOTAL TIME 1.53360E+07 2.55600E+05  4260.0      177.50     0.48597    
1
  HEAD IN LAYER   1 AT END OF TIME STEP  24 IN STRESS PERIOD    2
  ---------------------------------------------------------------------------

           1       2       3       4       5       6       7       8       9      10      11      12      13      14      15
 ...........................................................................................................................
   1  130.361 136.002 139.222 142.076 145.780 149.513 152.789 155.490 157.583 159.050 159.929 160.303 160.304 160.114 159.939
   2  130.344 135.629 138.322 140.531 144.968 149.166 152.621 155.366 157.440 158.845 159.616 159.829 159.613 159.178 158.817
   3  130.328 135.251 137.145 137.525 143.916 148.800 152.431 155.184 157.194 158.470 159.028 158.906 158.200 157.148 156.255
   4  130.343 135.601 138.271 140.453 144.858 149.013 152.396 155.022 156.905 157.998 158.253 157.613 156.041 153.678 151.305
   5  130.358 135.950 139.129 141.936 145.581 149.233 152.378 154.868 156.621 157.525 157.449 156.168 153.290 148.097 140.000
   6  130.357 135.933 139.099 141.892 145.520 149.151 152.264 154.706 156.386 157.168 156.858 155.055 150.747 140.000 140.000
   7  130.340 135.551 138.182 140.321 144.679 148.774 152.068 154.561 156.246 157.022 156.718 154.962 150.761 140.000 140.000
   8  130.324 135.171 137.003 137.304 143.632 148.429 151.928 154.485 156.213 157.075 156.995 155.848 153.487 150.093 149.050
   9  130.339 135.530 138.146 140.270 144.618 148.705 151.996 154.504 156.254 157.211 157.365 156.744 155.474 153.980 153.249
  10  130.355 135.892 139.030 141.795 145.398 149.006 152.101 154.548 156.299 157.312 157.601 157.248 156.442 155.538 155.011
1
  HEAD IN LAYER   2 AT END OF TIME STEP  24 IN STRESS PERIOD    2
  ---------------------------------------------------------------------------

           1       2       3       4       5       6       7       8       9      10      11      12      13      14      15
 ...........................................................................................................................
   1  131.876 135.565 138.014 140.412 144.206 148.078 151.471 154.246 156.378 157.870 158.774 159.178 159.216 159.066 158.919
   2  131.768 135.104 136.753 137.541 142.993 147.627 151.277 154.116 156.236 157.672 158.478 158.738 158.588 158.232 157.935
   3  131.668 134.571 134.482 125.955 140.787 147.084 151.056 153.932 155.996 157.314 157.926 157.892 157.330 156.478 155.773
   4  131.757 135.073 136.702 137.466 142.886 147.475 151.053 153.779 155.718 156.865 157.208 156.735 155.478 153.638 151.906
   5  131.854 135.509 137.921 140.274 144.010 147.800 151.064 153.635 155.445 156.419 156.474 155.481 153.240 149.481 144.395
   6  131.847 135.489 137.891 140.230 143.949 147.718 150.950 153.476 155.217 156.081 155.938 154.541 151.313 144.315 143.717
   7  131.735 135.017 136.612 137.336 142.709 147.237 150.727 153.324 155.074 155.931 155.791 154.429 151.292 144.356 143.862
   8  131.634 134.483 134.340 125.745 140.509 146.715 150.555 153.239 155.033 155.963 156.001 155.099 153.229 150.678 149.757
   9  131.726 134.994 136.576 137.286 142.648 147.167 150.653 153.261 155.066 156.076 156.308 155.819 154.764 153.532 152.892
  10  131.829 135.444 137.821 140.135 143.828 147.572 150.784 153.309 155.108 156.164 156.509 156.239 155.547 154.762 154.293
1
  HEAD IN LAYER   3 AT END OF TIME STEP  24 IN STRESS PERIOD    2
  ---------------------------------------------------------------------------

           1       2       3       4       5       6       7       8       9      10      11      12      13      14      15
 ...........................................................................................................................
   1  133.376 135.133 136.818 138.764 142.647 146.657 150.165 153.014 155.184 156.702 157.630 158.064 158.139 158.028 157.910
   2  133.178 134.583 135.199 134.581 141.039 146.102 149.945 152.879 155.044 156.511 157.350 157.657 157.573 157.296 157.061
   3  132.994 133.897 131.846 114.500 137.688 145.385 149.695 152.691 154.809 156.168 156.834 156.889 156.469 155.815 155.297
   4  133.157 134.550 135.149 134.508 140.934 145.952 149.724 152.548 154.542 155.744 156.173 155.866 154.921 153.600 152.502
   5  133.336 135.071 136.725 138.629 142.454 146.381 149.762 152.414 154.280 155.324 155.510 154.801 153.190 150.851 148.747
   6  133.322 135.050 136.694 138.585 142.394 146.299 149.649 152.257 154.059 155.003 155.028 154.031 151.874 148.587 147.396
   7  133.117 134.489 135.058 134.380 140.759 145.715 149.399 152.099 153.914 154.851 154.873 153.901 151.818 148.668 147.686
   8  132.931 133.802 131.704 114.299 137.416 145.018 149.195 152.005 153.864 154.861 155.018 154.356 152.973 151.257 150.457
   9  133.100 134.464 135.022 134.332 140.699 145.644 149.322 152.031 153.891 154.952 155.261 154.904 154.061 153.089 152.538
  10  133.289 135.001 136.624 138.490 142.273 146.151 149.480 152.084 153.929 155.027 155.427 155.240 154.661 153.993 153.581
1
  HEAD IN LAYER   4 AT END OF TIME STEP  24 IN STRESS PERIOD    2
  ---------------------------------------------------------------------------

           1       2       3       4       5       6       7       8       9      10      11      12      13      14      15
 ...........................................................................................................................
   1  133.796 135.064 136.518 138.463 142.168 146.133 149.657 152.528 154.714 156.245 157.185 157.633 157.727 157.635 157.532
   2  133.587 134.554 135.170 135.480 140.823 145.615 149.439 152.393 154.576 156.058 156.913 157.244 157.192 156.953 156.748
   3  133.404 133.984 132.881 124.741 138.527 145.011 149.199 152.207 154.344 155.723 156.415 156.513 156.163 155.603 155.168
   4  133.563 134.519 135.120 135.407 140.719 145.465 149.219 152.065 154.082 155.310 155.782 155.556 154.758 153.670 152.813
   5  133.750 135.000 136.425 138.329 141.977 145.857 149.255 151.934 153.826 154.903 155.153 154.580 153.254 151.447 149.971
   6  133.734 134.978 136.394 138.285 141.917 145.776 149.143 151.779 153.607 154.591 154.696 153.887 152.166 149.784 148.725
   7  133.517 134.456 135.029 135.280 140.545 145.229 148.895 151.619 153.461 154.438 154.538 153.747 152.086 149.817 148.911
   8  133.332 133.884 132.739 124.542 138.256 144.645 148.700 151.525 153.408 154.438 154.652 154.105 152.942 151.554 150.838
   9  133.497 134.429 134.992 135.232 140.485 145.157 148.817 151.548 153.431 154.517 154.864 154.571 153.830 152.977 152.476
  10  133.696 134.926 136.322 138.190 141.795 145.627 148.972 151.601 153.467 154.585 155.013 154.866 154.343 153.732 153.350
1
  HEAD IN LAYER   5 AT END OF TIME STEP  24 IN STRESS PERIOD    2
  ---------------------------------------------------------------------------

           1       2       3       4       5       6       7       8       9      10      11      12      13      14      15
 ...........................................................................................................................
   1  134.088 135.016 136.309 138.254 141.835 145.768 149.302 152.190 154.387 155.927 156.875 157.334 157.441 157.363 157.268
   2  133.872 134.533 135.150 136.106 140.673 145.276 149.087 152.055 154.250 155.742 156.609 156.956 156.927 156.714 156.530
   3  133.689 134.044 133.602 131.870 139.110 144.750 148.854 151.870 154.021 155.412 156.123 156.251 155.950 155.455 155.078
   4  133.845 134.498 135.100 136.033 140.570 145.126 148.867 151.729 153.762 155.007 155.509 155.340 154.645 153.718 153.030
   5  134.038 134.950 136.216 138.120 141.644 145.493 148.903 151.600 153.509 154.610 154.904 154.426 153.298 151.861 150.822
   6  134.021 134.928 136.185 138.076 141.584 145.412 148.791 151.445 153.293 154.304 154.465 153.786 152.370 150.617 149.650
   7  133.795 134.433 135.008 135.907 140.397 144.890 148.544 151.285 153.146 154.150 154.305 153.639 152.273 150.616 149.764
   8  133.610 133.942 133.460 131.673 138.841 144.385 148.356 151.190 153.091 154.143 154.397 153.930 152.921 151.760 151.103
   9  133.773 134.405 134.972 135.859 140.336 144.819 148.466 151.212 153.111 154.214 154.587 154.339 153.669 152.900 152.432
  10  133.979 134.874 136.113 137.981 141.463 145.263 148.618 151.265 153.146 154.278 154.725 154.606 154.122 153.551 153.188
1
  VOLUME BUDGET FOR ENTIRE MODEL AT END OF TIME STEP   24, STRESS PERIOD   2
  ------------------------------------------------------------------------------

     CUMULATIVE VOLUME      L**3       RATES FOR THIS TIME STEP      L**3/T
     ------------------                 ------------------------

           IN:                                      IN:
           ---                                      ---
         STORAGE(SS) =       40871.7980           STORAGE(SS) =       1.6261E-03
         STORAGE(SY) =           0.0000           STORAGE(SY) =           0.0000
               WELLS =           0.0000                 WELLS =           0.0000
       RIVER LEAKAGE =           0.0000         RIVER LEAKAGE =           0.0000
            RECHARGE =    28618502.8186              RECHARGE =      145000.0000
       CONSTANT HEAD =           0.0000         CONSTANT HEAD =           0.0000

            TOTAL IN =    28659374.6166              TOTAL IN =      145000.0016

          OUT:                                     OUT:
          ----                                     ----
         STORAGE(SS) =       5.1243E-02           STORAGE(SS) =       1.1976E-04
         STORAGE(SY) =           0.0000           STORAGE(SY) =           0.0000
               WELLS =    13745828.9469                 WELLS =       70000.0000
       RIVER LEAKAGE =     6884170.4398         RIVER LEAKAGE =       34486.7243
            RECHARGE =           0.0000              RECHARGE =           0.0000
       CONSTANT HEAD =     8031809.2027         CONSTANT HEAD =       40526.4371

           TOTAL OUT =    28661808.6406             TOTAL OUT =      145013.1615

            IN - OUT =       -2434.0241              IN - OUT =         -13.1599

 PERCENT DISCREPANCY =          -0.01     PERCENT DISCREPANCY =          -0.01






         TIME SUMMARY AT END OF TIME STEP   24 IN STRESS PERIOD    2
                    SECONDS     MINUTES      HOURS       DAYS        YEARS
                    -----------------------------------------------------------
   TIME STEP LENGTH 1.71668E+06  28611.      476.85      19.869     5.43982E-02
 STRESS PERIOD TIME 1.69663E+07 2.82771E+05  4712.9      196.37     0.53763    
         TOTAL TIME 1.70527E+07 2.84211E+05  4736.9      197.37     0.54037    
1
  HEAD IN LAYER   1 AT END OF TIME STEP  25 IN STRESS PERIOD    2
  ---------------------------------------------------------------------------

           1       2       3       4       5       6       7       8       9      10      11      12      13      14      15
 ...........................................................................................................................
   1  130.361 136.002 139.222 142.076 145.780 149.513 152.789 155.490 157.583 159.050 159.929 160.303 160.304 160.114 159.939
   2  130.344 135.629 138.322 140.531 144.967 149.166 152.621 155.366 157.440 158.845 159.616 159.829 159.613 159.178 158.817
   3  130.328 135.251 137.145 137.525 143.916 148.800 152.431 155.184 157.194 158.470 159.028 158.906 158.200 157.148 156.255
   4  130.343 135.601 138.271 140.453 144.858 149.013 152.396 155.022 156.905 157.998 158.253 157.613 156.041 153.678 151.305
   5  130.358 135.950 139.129 141.936 145.581 149.233 152.378 154.868 156.621 157.525 157.449 156.168 153.290 148.097 140.000
   6  130.357 135.933 139.099 141.892 145.520 149.151 152.264 154.706 156.386 157.168 156.858 155.055 150.747 140.000 140.000
   7  130.340 135.551 138.182 140.321 144.679 148.774 152.068 154.561 156.246 157.022 156.718 154.962 150.761 140.000 140.000
   8  130.324 135.171 137.003 137.304 143.632 148.429 151.928 154.485 156.213 157.075 156.995 155.848 153.487 150.093 149.050
   9  130.339 135.530 138.146 140.270 144.618 148.705 151.996 154.504 156.254 157.211 157.365 156.744 155.474 153.980 153.249
  10  130.355 135.892 139.030 141.795 145.398 149.006 152.101 154.548 156.299 157.312 157.601 157.248 156.442 155.538 155.011
1
  HEAD IN LAYER   2 AT END OF TIME STEP  25 IN STRESS PERIOD    2
  ---------------------------------------------------------------------------

           1       2       3       4       5       6       7       8       9      10      11      12      13      14      15
 ...........................................................................................................................
   1  131.876 135.565 138.014 140.412 144.206 148.078 151.471 154.246 156.377 157.870 158.774 159.178 159.216 159.066 158.919
   2  131.768 135.104 136.753 137.541 142.993 147.627 151.277 154.116 156.236 157.672 158.478 158.738 158.588 158.232 157.935
   3  131.668 134.571 134.482 125.955 140.787 147.084 151.056 153.932 155.996 157.314 157.926 157.892 157.330 156.478 155.773
   4  131.757 135.073 136.702 137.466 142.886 147.475 151.053 153.779 155.718 156.865 157.208 156.735 155.478 153.638 151.906
   5  131.854 135.509 137.921 140.274 144.010 147.800 151.064 153.635 155.445 156.419 156.474 155.481 153.240 149.481 144.395
   6  131.847 135.489 137.891 140.230 143.949 147.718 150.950 153.476 155.217 156.081 155.938 154.541 151.313 144.315 143.717
   7  131.735 135.017 136.612 137.336 142.709 147.237 150.727 153.324 155.074 155.931 155.791 154.429 151.292 144.356 143.862
   8  131.634 134.483 134.340 125.745 140.509 146.715 150.555 153.239 155.033 155.963 156.001 155.099 153.229 150.678 149.757
   9  131.726 134.994 136.576 137.286 142.648 147.167 150.653 153.261 155.066 156.076 156.308 155.819 154.764 153.532 152.892
  10  131.829 135.444 137.821 140.135 143.828 147.572 150.784 153.309 155.108 156.164 156.509 156.239 155.547 154.762 154.293
1
  HEAD IN LAYER   3 AT END OF TIME STEP  25 IN STRESS PERIOD    2
  ---------------------------------------------------------------------------

           1       2       3       4       5       6       7       8       9      10      11      12      13      14      15
 ...........................................................................................................................
   1  133.376 135.133 136.818 138.764 142.647 146.657 150.165 153.014 155.184 156.702 157.630 158.064 158.139 158.028 157.910
   2  133.178 134.583 135.199 134.581 141.039 146.102 149.945 152.879 155.044 156.511 157.350 157.657 157.573 157.296 157.061
   3  132.994 133.897 131.846 114.500 137.688 145.385 149.695 152.691 154.809 156.168 156.834 156.889 156.469 155.815 155.297
   4  133.157 134.550 135.149 134.508 140.934 145.952 149.724 152.548 154.542 155.744 156.173 155.866 154.921 153.600 152.502
   5  133.336 135.071 136.725 138.629 142.454 146.381 149.762 152.414 154.280 155.324 155.510 154.801 153.190 150.851 148.747
   6  133.322 135.050 136.694 138.585 142.394 146.299 149.649 152.257 154.059 155.003 155.028 154.031 151.874 148.587 147.396
   7  133.117 134.489 135.058 134.380 140.759 145.715 149.399 152.099 153.914 154.851 154.873 153.901 151.818 148.668 147.686
   8  132.931 133.802 131.704 114.299 137.416 145.018 149.195 152.005 153.864 154.861 155.018 154.356 152.973 151.257 150.457
   9  133.100 134.464 135.022 134.332 140.699 145.644 149.322 152.031 153.891 154.952 155.261 154.904 154.061 153.089 152.538
  10  133.289 135.001 136.624 138.490 142.273 146.151 149.480 152.084 153.929 155.027 155.427 155.240 154.661 153.993 153.581
1
  HEAD IN LAYER   4 AT END OF TIME STEP  25 IN STRESS PERIOD    2
  ---------------------------------------------------------------------------

           1       2       3       4       5       6       7       8       9      10      11      12      13      14      15
 ...........................................................................................................................
   1  133.796 135.064 136.518 138.463 142.168 146.133 149.657 152.528 154.714 156.245 157.185 157.633 157.727 157.635 157.532
   2  133.587 134.554 135.170 135.480 140.823 145.615 149.439 152.393 154.576 156.058 156.913 157.244 157.192 156.953 156.748
   3  133.404 133.984 132.881 124.741 138.527 145.011 149.199 152.207 154.344 155.723 156.415 156.513 156.163 155.603 155.168
   4  133.563 134.519 135.120 135.407 140.719 145.465 149.219 152.065 154.082 155.310 155.782 155.556 154.758 153.670 152.813
   5  133.750 135.000 136.425 138.329 141.977 145.857 149.255 151.934 153.825 154.903 155.153 154.580 153.254 151.447 149.971
   6  133.734 134.978 136.394 138.285 141.917 145.776 149.143 151.779 153.607 154.591 154.696 153.887 152.166 149.784 148.725
   7  133.517 134.456 135.029 135.280 140.545 145.229 148.895 151.619 153.461 154.438 154.538 153.747 152.086 149.817 148.911
   8  133.332 133.884 132.739 124.542 138.256 144.645 148.700 151.525 153.408 154.438 154.652 154.105 152.942 151.554 150.838
   9  133.497 134.429 134.992 135.232 140.485 145.157 148.817 151.548 153.431 154.517 154.864 154.571 153.830 152.977 152.476
  10  133.696 134.926 136.322 138.190 141.795 145.627 148.972 151.601 153.467 154.585 155.013 154.866 154.343 153.732 153.350
1
  HEAD IN LAYER   5 AT END OF TIME STEP  25 IN STRESS PERIOD    2
  ---------------------------------------------------------------------------

           1       2       3       4       5       6       7       8       9      10      11      12      13      14      15
 ...........................................................................................................................
   1  134.088 135.016 136.309 138.254 141.835 145.768 149.302 152.190 154.387 155.927 156.875 157.334 157.441 157.363 157.268
   2  133.872 134.533 135.150 136.106 140.673 145.276 149.087 152.055 154.250 155.742 156.609 156.956 156.927 156.714 156.530
   3  133.689 134.044 133.602 131.870 139.110 144.750 148.854 151.870 154.021 155.412 156.123 156.251 155.950 155.455 155.078
   4  133.845 134.498 135.100 136.033 140.570 145.126 148.867 151.729 153.762 155.007 155.509 155.340 154.645 153.718 153.030
   5  134.038 134.950 136.216 138.120 141.644 145.493 148.903 151.600 153.509 154.610 154.904 154.426 153.298 151.861 150.822
   6  134.021 134.928 136.185 138.076 141.584 145.412 148.791 151.445 153.293 154.304 154.465 153.786 152.370 150.617 149.650
   7  133.795 134.433 135.008 135.907 140.397 144.890 148.544 151.285 153.146 154.150 154.305 153.639 152.273 150.616 149.764
   8  133.610 133.942 133.460 131.673 138.841 144.385 148.356 151.190 153.091 154.143 154.397 153.930 152.921 151.760 151.103
   9  133.773 134.405 134.972 135.859 140.336 144.819 148.466 151.212 153.111 154.214 154.587 154.339 153.669 152.900 152.432
  10  133.979 134.874 136.113 137.981 141.463 145.263 148.618 151.265 153.146 154.278 154.725 154.606 154.122 153.551 153.188
1
  VOLUME BUDGET FOR ENTIRE MODEL AT END OF TIME STEP   25, STRESS PERIOD   2
  ------------------------------------------------------------------------------

     CUMULATIVE VOLUME      L**3       RATES FOR THIS TIME STEP      L**3/T
     ------------------                 ------------------------

           IN:                                      IN:
           ---                                      ---
         STORAGE(SS) =       40871.8292           STORAGE(SS) =       1.4269E-03
         STORAGE(SY) =           0.0000           STORAGE(SY) =           0.0000
               WELLS =           0.0000                 WELLS =           0.0000
       RIVER LEAKAGE =           0.0000         RIVER LEAKAGE =           0.0000
            RECHARGE =    31787597.3142              RECHARGE =      145000.0000
       CONSTANT HEAD =           0.0000         CONSTANT HEAD =           0.0000

            TOTAL IN =    31828469.1434              TOTAL IN =      145000.0014

          OUT:                                     OUT:
          ----                                     ----
         STORAGE(SS) =       5.3758E-02           STORAGE(SS) =       1.1507E-04
         STORAGE(SY) =           0.0000           STORAGE(SY) =           0.0000
               WELLS =    15275736.6344                 WELLS =       70000.0000
       RIVER LEAKAGE =     7637905.7293         RIVER LEAKAGE =       34486.7018
            RECHARGE =           0.0000              RECHARGE =           0.0000
       CONSTANT HEAD =     8917547.2034         CONSTANT HEAD =       40526.4060

           TOTAL OUT =    31831189.6209             TOTAL OUT =      145013.1079

            IN - OUT =       -2720.4775              IN - OUT =         -13.1065

 PERCENT DISCREPANCY =          -0.01     PERCENT DISCREPANCY =          -0.01






         TIME SUMMARY AT END OF TIME STEP   25 IN STRESS PERIOD    2
                    SECONDS     MINUTES      HOURS       DAYS        YEARS
                    -----------------------------------------------------------
   TIME STEP LENGTH 1.88834E+06  31472.      524.54      21.856     5.98380E-02
 STRESS PERIOD TIME 1.88546E+07 3.14244E+05  5237.4      218.22     0.59747    
         TOTAL TIME 1.89410E+07 3.15684E+05  5261.4      219.22     0.60020    
1
  HEAD IN LAYER   1 AT END OF TIME STEP  26 IN STRESS PERIOD    2
  ---------------------------------------------------------------------------

           1       2       3       4       5       6       7       8       9      10      11      12      13      14      15
 ...........................................................................................................................
   1  130.361 136.002 139.222 142.076 145.780 149.513 152.789 155.490 157.583 159.050 159.929 160.303 160.304 160.114 159.939
   2  130.344 135.629 138.322 140.531 144.967 149.166 152.621 155.366 157.440 158.845 159.616 159.829 159.613 159.178 158.817
   3  130.328 135.251 137.145 137.525 143.916 148.800 152.431 155.184 157.194 158.470 159.028 158.906 158.200 157.148 156.255
   4  130.343 135.601 138.271 140.453 144.858 149.013 152.396 155.022 156.905 157.998 158.253 157.613 156.041 153.678 151.305
   5  130.358 135.950 139.129 141.936 145.581 149.233 152.378 154.868 156.621 157.525 157.449 156.168 153.290 148.097 140.000
   6  130.357 135.933 139.099 141.892 145.520 149.151 152.264 154.706 156.386 157.168 156.858 155.055 150.747 140.000 140.000
   7  130.340 135.551 138.182 140.321 144.679 148.774 152.068 154.561 156.246 157.022 156.718 154.962 150.761 140.000 140.000
   8  130.324 135.171 137.003 137.304 143.632 148.429 151.928 154.485 156.213 157.075 156.995 155.848 153.487 150.093 149.050
   9  130.339 135.530 138.146 140.270 144.618 148.705 151.996 154.504 156.254 157.211 157.365 156.744 155.474 153.980 153.249
  10  130.355 135.892 139.030 141.795 145.398 149.006 152.101 154.548 156.299 157.312 157.601 157.248 156.442 155.538 155.011
1
  HEAD IN LAYER   2 AT END OF TIME STEP  26 IN STRESS PERIOD    2
  ---------------------------------------------------------------------------

           1       2       3       4       5       6       7       8       9      10      11      12      13      14      15
 ...........................................................................................................................
   1  131.876 135.565 138.014 140.412 144.206 148.078 151.471 154.246 156.377 157.870 158.774 159.178 159.216 159.066 158.919
   2  131.768 135.104 136.753 137.541 142.993 147.627 151.277 154.116 156.236 157.672 158.478 158.738 158.588 158.232 157.935
   3  131.668 134.571 134.482 125.955 140.787 147.084 151.056 153.932 155.996 157.314 157.926 157.892 157.330 156.478 155.773
   4  131.757 135.073 136.702 137.466 142.886 147.475 151.053 153.779 155.718 156.865 157.208 156.735 155.478 153.638 151.906
   5  131.854 135.509 137.921 140.274 144.010 147.800 151.064 153.635 155.445 156.419 156.474 155.481 153.240 149.481 144.395
   6  131.847 135.489 137.891 140.230 143.949 147.718 150.950 153.476 155.217 156.081 155.938 154.541 151.313 144.315 143.717
   7  131.735 135.017 136.612 137.336 142.709 147.237 150.727 153.324 155.074 155.931 155.791 154.429 151.292 144.356 143.862
   8  131.634 134.483 134.340 125.745 140.509 146.715 150.555 153.239 155.033 155.963 156.001 155.099 153.229 150.678 149.757
   9  131.726 134.994 136.576 137.286 142.648 147.167 150.653 153.261 155.066 156.076 156.308 155.819 154.764 153.532 152.892
  10  131.829 135.444 137.821 140.135 143.828 147.572 150.784 153.309 155.108 156.164 156.509 156.239 155.547 154.762 154.293
1
  HEAD IN LAYER   3 AT END OF TIME STEP  26 IN STRESS PERIOD    2
  ---------------------------------------------------------------------------

           1       2       3       4       5       6       7       8       9      10      11      12      13      14      15
 ...........................................................................................................................
   1  133.376 135.133 136.818 138.764 142.647 146.657 150.165 153.014 155.184 156.702 157.630 158.064 158.139 158.028 157.910
   2  133.178 134.583 135.199 134.581 141.039 146.102 149.945 152.879 155.044 156.511 157.350 157.657 157.573 157.296 157.061
   3  132.994 133.897 131.846 114.500 137.688 145.385 149.695 152.691 154.809 156.168 156.834 156.889 156.469 155.815 155.296
   4  133.157 134.550 135.149 134.508 140.934 145.952 149.724 152.548 154.542 155.744 156.173 155.866 154.921 153.600 152.502
   5  133.336 135.071 136.725 138.629 142.454 146.381 149.762 152.414 154.280 155.324 155.510 154.801 153.190 150.851 148.747
   6  133.322 135.050 136.694 138.585 142.394 146.299 149.649 152.257 154.059 155.003 155.028 154.031 151.874 148.587 147.396
   7  133.117 134.489 135.058 134.380 140.759 145.715 149.399 152.099 153.914 154.851 154.873 153.901 151.818 148.668 147.686
   8  132.931 133.802 131.704 114.299 137.416 145.018 149.195 152.005 153.864 154.861 155.018 154.356 152.973 151.257 150.457
   9  133.100 134.464 135.022 134.332 140.699 145.644 149.322 152.031 153.891 154.952 155.261 154.904 154.061 153.089 152.538
  10  133.289 135.001 136.624 138.490 142.273 146.151 149.480 152.084 153.929 155.027 155.427 155.240 154.661 153.993 153.581
1
  HEAD IN LAYER   4 AT END OF TIME STEP  26 IN STRESS PERIOD    2
  ---------------------------------------------------------------------------

           1       2       3       4       5       6       7       8       9      10      11      12      13      14      15
 ...........................................................................................................................
   1  133.796 135.064 136.518 138.463 142.168 146.133 149.657 152.528 154.714 156.245 157.185 157.633 157.727 157.635 157.532
   2  133.587 134.554 135.170 135.480 140.823 145.615 149.439 152.393 154.576 156.058 156.913 157.244 157.192 156.953 156.748
   3  133.404 133.984 132.881 124.741 138.527 145.011 149.199 152.207 154.344 155.723 156.415 156.513 156.163 155.603 155.168
   4  133.563 134.519 135.120 135.407 140.719 145.465 149.219 152.065 154.082 155.310 155.782 155.556 154.758 153.670 152.813
   5  133.750 135.000 136.425 138.329 141.977 145.857 149.255 151.934 153.825 154.903 155.153 154.580 153.254 151.447 149.971
   6  133.734 134.978 136.394 138.285 141.917 145.776 149.143 151.779 153.607 154.591 154.696 153.887 152.166 149.784 148.725
   7  133.517 134.456 135.029 135.280 140.545 145.229 148.895 151.619 153.461 154.438 154.538 153.747 152.086 149.817 148.911
   8  133.332 133.884 132.739 124.542 138.256 144.645 148.700 151.525 153.408 154.438 154.652 154.105 152.942 151.554 150.838
   9  133.497 134.429 134.992 135.232 140.485 145.157 148.817 151.548 153.431 154.517 154.864 154.571 153.830 152.977 152.476
  10  133.696 134.926 136.322 138.190 141.795 145.627 148.972 151.601 153.467 154.585 155.013 154.866 154.343 153.732 153.349
1
  HEAD IN LAYER   5 AT END OF TIME STEP  26 IN STRESS PERIOD    2
  ---------------------------------------------------------------------------

           1       2       3       4       5       6       7       8       9      10      11      12      13      14      15
 ...........................................................................................................................
   1  134.088 135.016 136.309 138.254 141.835 145.768 149.302 152.190 154.387 155.927 156.875 157.334 157.441 157.363 157.268
   2  133.872 134.533 135.150 136.106 140.673 145.276 149.087 152.055 154.250 155.742 156.609 156.956 156.927 156.714 156.530
   3  133.689 134.044 133.602 131.870 139.110 144.750 148.854 151.870 154.021 155.412 156.123 156.251 155.950 155.455 155.078
   4  133.845 134.498 135.100 136.033 140.570 145.126 148.867 151.729 153.762 155.007 155.509 155.340 154.645 153.718 153.030
   5  134.038 134.950 136.216 138.120 141.644 145.493 148.903 151.600 153.509 154.610 154.904 154.426 153.298 151.861 150.822
   6  134.021 134.928 136.185 138.076 141.584 145.411 148.791 151.445 153.293 154.304 154.465 153.786 152.370 150.617 149.650
   7  133.795 134.432 135.008 135.907 140.396 144.890 148.544 151.285 153.146 154.150 154.305 153.639 152.273 150.616 149.764
   8  133.610 133.942 133.460 131.673 138.841 144.385 148.356 151.190 153.091 154.143 154.397 153.930 152.921 151.760 151.103
   9  133.773 134.405 134.972 135.859 140.336 144.819 148.466 151.212 153.111 154.214 154.587 154.339 153.669 152.900 152.432
  10  133.979 134.874 136.113 137.981 141.463 145.263 148.618 151.265 153.146 154.278 154.725 154.606 154.122 153.551 153.188
1
  VOLUME BUDGET FOR ENTIRE MODEL AT END OF TIME STEP   26, STRESS PERIOD   2
  ------------------------------------------------------------------------------

     CUMULATIVE VOLUME      L**3       RATES FOR THIS TIME STEP      L**3/T
     ------------------                 ------------------------

           IN:                                      IN:
           ---                                      ---
         STORAGE(SS) =       40871.8610           STORAGE(SS) =       1.3237E-03
         STORAGE(SY) =           0.0000           STORAGE(SY) =           0.0000
               WELLS =           0.0000                 WELLS =           0.0000
       RIVER LEAKAGE =           0.0000         RIVER LEAKAGE =           0.0000
            RECHARGE =    35273601.2594              RECHARGE =      145000.0000
       CONSTANT HEAD =           0.0000         CONSTANT HEAD =           0.0000

            TOTAL IN =    35314473.1204              TOTAL IN =      145000.0013

          OUT:                                     OUT:
          ----                                     ----
         STORAGE(SS) =       5.6056E-02           STORAGE(SS) =       9.5586E-05
         STORAGE(SY) =           0.0000           STORAGE(SY) =           0.0000
               WELLS =    16958635.0907                 WELLS =       70000.0000
       RIVER LEAKAGE =     8467013.8979         RIVER LEAKAGE =       34486.6748
            RECHARGE =           0.0000              RECHARGE =           0.0000
       CONSTANT HEAD =     9891858.7321         CONSTANT HEAD =       40526.3947

           TOTAL OUT =    35317507.7768             TOTAL OUT =      145013.0696

            IN - OUT =       -3034.6564              IN - OUT =         -13.0682

 PERCENT DISCREPANCY =          -0.01     PERCENT DISCREPANCY =          -0.01






         TIME SUMMARY AT END OF TIME STEP   26 IN STRESS PERIOD    2
                    SECONDS     MINUTES      HOURS       DAYS        YEARS
                    -----------------------------------------------------------
   TIME STEP LENGTH 2.07718E+06  34620.      576.99      24.041     6.58218E-02
 STRESS PERIOD TIME 2.09318E+07 3.48863E+05  5814.4      242.27     0.66329    
         TOTAL TIME 2.10182E+07 3.50303E+05  5838.4      243.27     0.66603    
1
  HEAD IN LAYER   1 AT END OF TIME STEP  27 IN STRESS PERIOD    2
  ---------------------------------------------------------------------------

           1       2       3       4       5       6       7       8       9      10      11      12      13      14      15
 ...........................................................................................................................
   1  130.361 136.002 139.222 142.076 145.780 149.513 152.789 155.490 157.583 159.050 159.929 160.303 160.304 160.114 159.939
   2  130.344 135.629 138.322 140.531 144.967 149.166 152.621 155.366 157.440 158.845 159.616 159.829 159.613 159.178 158.817
   3  130.328 135.251 137.145 137.525 143.916 148.800 152.431 155.184 157.194 158.470 159.028 158.906 158.200 157.148 156.255
   4  130.343 135.601 138.271 140.453 144.858 149.013 152.396 155.022 156.905 157.998 158.253 157.613 156.041 153.678 151.305
   5  130.358 135.950 139.129 141.936 145.581 149.233 152.378 154.868 156.621 157.525 157.449 156.168 153.290 148.097 140.000
   6  130.357 135.933 139.099 141.892 145.520 149.151 152.264 154.706 156.386 157.168 156.858 155.055 150.747 140.000 140.000
   7  130.340 135.551 138.182 140.321 144.679 148.774 152.068 154.561 156.246 157.022 156.718 154.962 150.761 140.000 140.000
   8  130.324 135.171 137.003 137.304 143.632 148.429 151.928 154.485 156.213 157.075 156.995 155.848 153.487 150.093 149.050
   9  130.339 135.530 138.146 140.270 144.618 148.705 151.996 154.504 156.254 157.211 157.365 156.744 155.474 153.980 153.249
  10  130.355 135.892 139.030 141.795 145.398 149.006 152.101 154.548 156.299 157.312 157.601 157.248 156.442 155.538 155.011
1
  HEAD IN LAYER   2 AT END OF TIME STEP  27 IN STRESS PERIOD    2
  ---------------------------------------------------------------------------

           1       2       3       4       5       6       7       8       9      10      11      12      13      14      15
 ...........................................................................................................................
   1  131.876 135.565 138.014 140.412 144.206 148.078 151.471 154.246 156.377 157.870 158.774 159.178 159.216 159.066 158.919
   2  131.768 135.104 136.753 137.541 142.993 147.627 151.277 154.116 156.236 157.672 158.478 158.738 158.588 158.232 157.935
   3  131.668 134.571 134.482 125.955 140.786 147.084 151.056 153.932 155.996 157.314 157.926 157.892 157.330 156.478 155.773
   4  131.757 135.073 136.702 137.466 142.886 147.475 151.053 153.779 155.718 156.865 157.208 156.735 155.478 153.638 151.906
   5  131.854 135.509 137.921 140.274 144.010 147.800 151.064 153.635 155.445 156.419 156.474 155.481 153.240 149.481 144.395
   6  131.847 135.489 137.891 140.230 143.949 147.718 150.950 153.476 155.217 156.080 155.938 154.540 151.313 144.315 143.717
   7  131.735 135.017 136.612 137.336 142.709 147.237 150.727 153.324 155.074 155.931 155.791 154.429 151.292 144.356 143.862
   8  131.634 134.483 134.340 125.744 140.509 146.715 150.555 153.239 155.033 155.963 156.001 155.098 153.229 150.678 149.757
   9  131.726 134.994 136.576 137.286 142.648 147.167 150.653 153.261 155.066 156.076 156.308 155.819 154.764 153.532 152.892
  10  131.829 135.444 137.821 140.135 143.828 147.572 150.784 153.309 155.108 156.164 156.509 156.239 155.547 154.762 154.293
1
  HEAD IN LAYER   3 AT END OF TIME STEP  27 IN STRESS PERIOD    2
  ---------------------------------------------------------------------------

           1       2       3       4       5       6       7       8       9      10      11      12      13      14      15
 ...........................................................................................................................
   1  133.376 135.133 136.818 138.764 142.647 146.657 150.165 153.014 155.184 156.702 157.630 158.064 158.139 158.028 157.910
   2  133.178 134.583 135.199 134.581 141.038 146.102 149.945 152.879 155.044 156.511 157.350 157.657 157.573 157.296 157.061
   3  132.994 133.897 131.846 114.500 137.688 145.385 149.695 152.691 154.809 156.168 156.834 156.889 156.469 155.815 155.296
   4  133.157 134.550 135.149 134.508 140.934 145.952 149.724 152.548 154.542 155.744 156.173 155.866 154.921 153.600 152.502
   5  133.336 135.071 136.725 138.629 142.454 146.381 149.762 152.414 154.280 155.324 155.510 154.801 153.190 150.851 148.747
   6  133.322 135.050 136.694 138.585 142.394 146.299 149.649 152.257 154.059 155.003 155.028 154.031 151.874 148.587 147.396
   7  133.117 134.489 135.058 134.380 140.759 145.715 149.399 152.099 153.914 154.851 154.873 153.901 151.818 148.668 147.686
   8  132.931 133.802 131.704 114.299 137.416 145.018 149.195 152.005 153.864 154.861 155.018 154.356 152.973 151.257 150.457
   9  133.100 134.464 135.022 134.332 140.699 145.644 149.322 152.031 153.891 154.952 155.261 154.904 154.061 153.089 152.538
  10  133.289 135.001 136.624 138.490 142.273 146.151 149.480 152.083 153.929 155.027 155.427 155.240 154.661 153.993 153.581
1
  HEAD IN LAYER   4 AT END OF TIME STEP  27 IN STRESS PERIOD    2
  ---------------------------------------------------------------------------

           1       2       3       4       5       6       7       8       9      10      11      12      13      14      15
 ...........................................................................................................................
   1  133.796 135.064 136.518 138.463 142.168 146.133 149.657 152.528 154.714 156.245 157.185 157.633 157.727 157.635 157.532
   2  133.587 134.554 135.170 135.480 140.823 145.615 149.439 152.393 154.576 156.058 156.913 157.244 157.192 156.953 156.748
   3  133.404 133.984 132.881 124.741 138.527 145.011 149.199 152.207 154.344 155.723 156.415 156.513 156.163 155.603 155.168
   4  133.563 134.519 135.120 135.407 140.719 145.465 149.219 152.065 154.082 155.309 155.782 155.556 154.758 153.670 152.813
   5  133.750 135.000 136.425 138.329 141.977 145.857 149.255 151.934 153.825 154.903 155.153 154.580 153.254 151.447 149.971
   6  133.734 134.978 136.394 138.285 141.917 145.776 149.143 151.779 153.607 154.591 154.696 153.887 152.166 149.784 148.725
   7  133.517 134.456 135.029 135.280 140.545 145.229 148.895 151.619 153.461 154.438 154.538 153.747 152.086 149.817 148.911
   8  133.332 133.884 132.739 124.542 138.256 144.645 148.700 151.525 153.408 154.438 154.652 154.105 152.942 151.553 150.838
   9  133.497 134.429 134.992 135.232 140.485 145.157 148.817 151.548 153.431 154.517 154.864 154.571 153.830 152.977 152.476
  10  133.696 134.926 136.322 138.190 141.795 145.627 148.972 151.601 153.467 154.585 155.013 154.866 154.343 153.732 153.349
1
  HEAD IN LAYER   5 AT END OF TIME STEP  27 IN STRESS PERIOD    2
  ---------------------------------------------------------------------------

           1       2       3       4       5       6       7       8       9      10      11      12      13      14      15
 ...........................................................................................................................
   1  134.088 135.016 136.309 138.254 141.835 145.768 149.302 152.190 154.387 155.927 156.875 157.334 157.441 157.363 157.268
   2  133.872 134.533 135.150 136.106 140.673 145.276 149.087 152.055 154.250 155.742 156.609 156.956 156.927 156.714 156.530
   3  133.689 134.044 133.602 131.870 139.110 144.750 148.854 151.870 154.021 155.412 156.123 156.251 155.950 155.455 155.078
   4  133.845 134.498 135.100 136.033 140.570 145.126 148.867 151.729 153.762 155.007 155.509 155.340 154.645 153.718 153.030
   5  134.038 134.950 136.216 138.120 141.644 145.493 148.903 151.600 153.509 154.610 154.904 154.426 153.298 151.861 150.822
   6  134.021 134.928 136.185 138.076 141.584 145.411 148.791 151.445 153.293 154.304 154.465 153.786 152.370 150.617 149.650
   7  133.795 134.432 135.008 135.907 140.396 144.890 148.544 151.285 153.146 154.150 154.305 153.639 152.273 150.616 149.764
   8  133.610 133.942 133.460 131.673 138.841 144.385 148.356 151.190 153.091 154.143 154.397 153.930 152.921 151.760 151.103
   9  133.773 134.405 134.972 135.859 140.336 144.819 148.466 151.212 153.111 154.214 154.587 154.339 153.668 152.900 152.432
  10  133.979 134.874 136.113 137.981 141.463 145.263 148.618 151.265 153.146 154.278 154.725 154.606 154.122 153.551 153.188
1
  VOLUME BUDGET FOR ENTIRE MODEL AT END OF TIME STEP   27, STRESS PERIOD   2
  ------------------------------------------------------------------------------

     CUMULATIVE VOLUME      L**3       RATES FOR THIS TIME STEP      L**3/T
     ------------------                 ------------------------

           IN:                                      IN:
           ---                                      ---
         STORAGE(SS) =       40871.8918           STORAGE(SS) =       1.1633E-03
         STORAGE(SY) =           0.0000           STORAGE(SY) =           0.0000
               WELLS =           0.0000                 WELLS =           0.0000
       RIVER LEAKAGE =           0.0000         RIVER LEAKAGE =           0.0000
            RECHARGE =    39108205.5991              RECHARGE =      145000.0000
       CONSTANT HEAD =           0.0000         CONSTANT HEAD =           0.0000

            TOTAL IN =    39149077.4909              TOTAL IN =      145000.0012

          OUT:                                     OUT:
          ----                                     ----
         STORAGE(SS) =       5.8494E-02           STORAGE(SS) =       9.2196E-05
         STORAGE(SY) =           0.0000           STORAGE(SY) =           0.0000
               WELLS =    18809823.3927                 WELLS =       70000.0000
       RIVER LEAKAGE =     9379032.2886         RIVER LEAKAGE =       34486.6523
            RECHARGE =           0.0000              RECHARGE =           0.0000
       CONSTANT HEAD =    10963600.5975         CONSTANT HEAD =       40526.3638

           TOTAL OUT =    39152456.3373             TOTAL OUT =      145013.0162

            IN - OUT =       -3378.8464              IN - OUT =         -13.0150

 PERCENT DISCREPANCY =          -0.01     PERCENT DISCREPANCY =          -0.01






         TIME SUMMARY AT END OF TIME STEP   27 IN STRESS PERIOD    2
                    SECONDS     MINUTES      HOURS       DAYS        YEARS
                    -----------------------------------------------------------
   TIME STEP LENGTH 2.28490E+06  38082.      634.69      26.446     7.24040E-02
 STRESS PERIOD TIME 2.32167E+07 3.86945E+05  6449.1      268.71     0.73569    
         TOTAL TIME 2.33031E+07 3.88385E+05  6473.1      269.71     0.73843    
1
  HEAD IN LAYER   1 AT END OF TIME STEP  28 IN STRESS PERIOD    2
  ---------------------------------------------------------------------------

           1       2       3       4       5       6       7       8       9      10      11      12      13      14      15
 ...........................................................................................................................
   1  130.361 136.002 139.222 142.076 145.780 149.513 152.789 155.490 157.583 159.050 159.929 160.303 160.304 160.114 159.939
   2  130.344 135.629 138.322 140.531 144.967 149.166 152.621 155.366 157.440 158.844 159.616 159.829 159.613 159.178 158.817
   3  130.328 135.251 137.145 137.525 143.916 148.800 152.431 155.184 157.194 158.470 159.028 158.906 158.200 157.148 156.255
   4  130.343 135.601 138.271 140.453 144.858 149.013 152.396 155.022 156.905 157.998 158.253 157.613 156.041 153.678 151.305
   5  130.358 135.950 139.129 141.936 145.581 149.233 152.378 154.868 156.621 157.525 157.449 156.168 153.290 148.097 140.000
   6  130.357 135.933 139.099 141.892 145.520 149.151 152.264 154.706 156.386 157.168 156.858 155.055 150.747 140.000 140.000
   7  130.340 135.551 138.182 140.321 144.679 148.774 152.068 154.561 156.246 157.022 156.718 154.962 150.761 140.000 140.000
   8  130.324 135.171 137.003 137.304 143.632 148.429 151.928 154.485 156.213 157.075 156.995 155.848 153.487 150.093 149.050
   9  130.339 135.530 138.146 140.270 144.618 148.705 151.996 154.504 156.254 157.211 157.365 156.744 155.474 153.980 153.249
  10  130.355 135.892 139.030 141.795 145.398 149.006 152.101 154.548 156.299 157.312 157.601 157.248 156.442 155.538 155.011
1
  HEAD IN LAYER   2 AT END OF TIME STEP  28 IN STRESS PERIOD    2
  ---------------------------------------------------------------------------

           1       2       3       4       5       6       7       8       9      10      11      12      13      14      15
 ...........................................................................................................................
   1  131.876 135.565 138.014 140.412 144.206 148.078 151.471 154.246 156.377 157.870 158.774 159.178 159.216 159.066 158.919
   2  131.768 135.104 136.753 137.541 142.993 147.627 151.277 154.116 156.236 157.672 158.478 158.738 158.588 158.232 157.935
   3  131.668 134.571 134.482 125.955 140.786 147.084 151.056 153.932 155.996 157.314 157.926 157.892 157.330 156.478 155.773
   4  131.757 135.073 136.702 137.466 142.886 147.475 151.053 153.779 155.718 156.865 157.208 156.735 155.478 153.638 151.906
   5  131.854 135.509 137.921 140.274 144.010 147.800 151.064 153.635 155.445 156.419 156.474 155.481 153.240 149.481 144.395
   6  131.847 135.489 137.891 140.230 143.949 147.718 150.950 153.476 155.217 156.080 155.938 154.540 151.313 144.315 143.717
   7  131.735 135.017 136.612 137.336 142.709 147.237 150.727 153.324 155.074 155.931 155.791 154.429 151.292 144.356 143.862
   8  131.634 134.483 134.340 125.744 140.509 146.715 150.555 153.239 155.033 155.963 156.001 155.098 153.229 150.678 149.757
   9  131.726 134.994 136.576 137.286 142.648 147.167 150.653 153.261 155.066 156.076 156.308 155.819 154.764 153.532 152.892
  10  131.829 135.444 137.821 140.135 143.828 147.572 150.784 153.309 155.108 156.164 156.509 156.239 155.547 154.762 154.293
1
  HEAD IN LAYER   3 AT END OF TIME STEP  28 IN STRESS PERIOD    2
  ---------------------------------------------------------------------------

           1       2       3       4       5       6       7       8       9      10      11      12      13      14      15
 ...........................................................................................................................
   1  133.376 135.133 136.818 138.764 142.647 146.657 150.165 153.014 155.184 156.702 157.630 158.064 158.139 158.028 157.910
   2  133.178 134.583 135.199 134.581 141.039 146.102 149.945 152.879 155.044 156.511 157.350 157.657 157.573 157.296 157.061
   3  132.994 133.897 131.846 114.500 137.688 145.385 149.695 152.691 154.809 156.168 156.834 156.889 156.469 155.815 155.296
   4  133.157 134.550 135.149 134.508 140.934 145.952 149.724 152.548 154.542 155.744 156.173 155.866 154.921 153.600 152.502
   5  133.336 135.071 136.725 138.629 142.454 146.381 149.762 152.414 154.280 155.324 155.510 154.801 153.190 150.851 148.747
   6  133.322 135.050 136.694 138.585 142.394 146.299 149.649 152.257 154.059 155.003 155.028 154.031 151.874 148.587 147.396
   7  133.117 134.489 135.058 134.380 140.759 145.715 149.399 152.099 153.914 154.851 154.873 153.901 151.818 148.668 147.686
   8  132.931 133.802 131.704 114.299 137.416 145.018 149.195 152.005 153.864 154.861 155.018 154.356 152.973 151.257 150.457
   9  133.100 134.464 135.022 134.332 140.699 145.644 149.322 152.031 153.891 154.952 155.261 154.904 154.061 153.089 152.538
  10  133.289 135.001 136.624 138.490 142.273 146.151 149.480 152.083 153.929 155.027 155.427 155.240 154.661 153.993 153.581
1
  HEAD IN LAYER   4 AT END OF TIME STEP  28 IN STRESS PERIOD    2
  ---------------------------------------------------------------------------

           1       2       3       4       5       6       7       8       9      10      11      12      13      14      15
 ...........................................................................................................................
   1  133.796 135.064 136.518 138.463 142.168 146.133 149.657 152.528 154.714 156.245 157.185 157.633 157.727 157.635 157.532
   2  133.587 134.554 135.170 135.480 140.823 145.615 149.439 152.393 154.576 156.058 156.913 157.244 157.192 156.953 156.748
   3  133.404 133.984 132.881 124.741 138.527 145.011 149.199 152.207 154.344 155.723 156.415 156.513 156.163 155.603 155.168
   4  133.563 134.519 135.120 135.407 140.719 145.465 149.219 152.065 154.082 155.310 155.782 155.556 154.758 153.670 152.813
   5  133.750 135.000 136.425 138.329 141.977 145.857 149.255 151.934 153.825 154.903 155.153 154.580 153.254 151.447 149.971
   6  133.734 134.978 136.394 138.285 141.917 145.776 149.143 151.779 153.607 154.591 154.696 153.887 152.166 149.784 148.725
   7  133.517 134.456 135.029 135.280 140.545 145.229 148.895 151.619 153.461 154.438 154.538 153.747 152.086 149.817 148.911
   8  133.332 133.884 132.739 124.542 138.256 144.645 148.700 151.525 153.408 154.438 154.652 154.105 152.942 151.553 150.838
   9  133.497 134.429 134.992 135.232 140.485 145.157 148.817 151.548 153.431 154.517 154.864 154.571 153.830 152.977 152.476
  10  133.696 134.926 136.322 138.190 141.795 145.627 148.972 151.601 153.467 154.585 155.013 154.866 154.343 153.732 153.349
1
  HEAD IN LAYER   5 AT END OF TIME STEP  28 IN STRESS PERIOD    2
  ---------------------------------------------------------------------------

           1       2       3       4       5       6       7       8       9      10      11      12      13      14      15
 ...........................................................................................................................
   1  134.088 135.016 136.309 138.254 141.835 145.768 149.302 152.190 154.387 155.927 156.875 157.334 157.441 157.363 157.267
   2  133.872 134.533 135.150 136.106 140.673 145.276 149.087 152.055 154.250 155.742 156.609 156.956 156.927 156.714 156.530
   3  133.689 134.044 133.602 131.870 139.110 144.750 148.854 151.870 154.021 155.412 156.123 156.251 155.949 155.455 155.078
   4  133.845 134.498 135.100 136.033 140.570 145.126 148.867 151.729 153.762 155.007 155.509 155.340 154.645 153.718 153.030
   5  134.038 134.950 136.216 138.120 141.644 145.493 148.903 151.600 153.509 154.610 154.904 154.426 153.298 151.861 150.822
   6  134.021 134.928 136.185 138.076 141.584 145.411 148.791 151.445 153.293 154.304 154.465 153.786 152.370 150.617 149.650
   7  133.795 134.432 135.008 135.907 140.396 144.890 148.544 151.285 153.146 154.150 154.305 153.639 152.273 150.616 149.764
   8  133.610 133.942 133.460 131.673 138.841 144.385 148.356 151.190 153.091 154.143 154.397 153.930 152.921 151.760 151.103
   9  133.773 134.405 134.972 135.859 140.336 144.819 148.466 151.212 153.111 154.214 154.587 154.339 153.668 152.900 152.432
  10  133.979 134.874 136.113 137.981 141.463 145.263 148.618 151.265 153.146 154.278 154.725 154.606 154.122 153.551 153.188
1
  VOLUME BUDGET FOR ENTIRE MODEL AT END OF TIME STEP   28, STRESS PERIOD   2
  ------------------------------------------------------------------------------

     CUMULATIVE VOLUME      L**3       RATES FOR THIS TIME STEP      L**3/T
     ------------------                 ------------------------

           IN:                                      IN:
           ---                                      ---
         STORAGE(SS) =       40871.9231           STORAGE(SS) =       1.0788E-03
         STORAGE(SY) =           0.0000           STORAGE(SY) =           0.0000
               WELLS =           0.0000                 WELLS =           0.0000
       RIVER LEAKAGE =           0.0000         RIVER LEAKAGE =           0.0000
            RECHARGE =    43326270.3728              RECHARGE =      145000.0000
       CONSTANT HEAD =           0.0000         CONSTANT HEAD =           0.0000

            TOTAL IN =    43367142.2959              TOTAL IN =      145000.0011

          OUT:                                     OUT:
          ----                                     ----
         STORAGE(SS) =       6.0712E-02           STORAGE(SS) =       7.6255E-05
         STORAGE(SY) =           0.0000           STORAGE(SY) =           0.0000
               WELLS =    20846130.5248                 WELLS =       70000.0000
       RIVER LEAKAGE =    10382251.7475         RIVER LEAKAGE =       34486.6258
            RECHARGE =           0.0000              RECHARGE =           0.0000
       CONSTANT HEAD =    12142516.3203         CONSTANT HEAD =       40526.3525

           TOTAL OUT =    43370898.6534             TOTAL OUT =      145012.9784

            IN - OUT =       -3756.3574              IN - OUT =         -12.9773

 PERCENT DISCREPANCY =          -0.01     PERCENT DISCREPANCY =          -0.01






         TIME SUMMARY AT END OF TIME STEP   28 IN STRESS PERIOD    2
                    SECONDS     MINUTES      HOURS       DAYS        YEARS
                    -----------------------------------------------------------
   TIME STEP LENGTH 2.51338E+06  41890.      698.16      29.090     7.96444E-02
 STRESS PERIOD TIME 2.57301E+07 4.28835E+05  7147.2      297.80     0.81534    
         TOTAL TIME 2.58165E+07 4.30275E+05  7171.2      298.80     0.81807    
1
  HEAD IN LAYER   1 AT END OF TIME STEP  29 IN STRESS PERIOD    2
  ---------------------------------------------------------------------------

           1       2       3       4       5       6       7       8       9      10      11      12      13      14      15
 ...........................................................................................................................
   1  130.361 136.002 139.222 142.076 145.780 149.513 152.789 155.490 157.583 159.050 159.929 160.303 160.304 160.114 159.939
   2  130.344 135.629 138.322 140.531 144.967 149.166 152.621 155.366 157.440 158.844 159.616 159.829 159.613 159.178 158.817
   3  130.328 135.251 137.145 137.525 143.916 148.800 152.431 155.184 157.194 158.470 159.028 158.906 158.200 157.148 156.255
   4  130.343 135.601 138.271 140.453 144.858 149.013 152.396 155.022 156.905 157.998 158.253 157.613 156.041 153.678 151.305
   5  130.358 135.950 139.129 141.936 145.581 149.233 152.378 154.868 156.621 157.525 157.449 156.168 153.290 148.097 140.000
   6  130.357 135.933 139.099 141.892 145.520 149.151 152.264 154.706 156.386 157.168 156.858 155.055 150.747 140.000 140.000
   7  130.340 135.551 138.182 140.321 144.679 148.774 152.068 154.561 156.246 157.022 156.718 154.962 150.761 140.000 140.000
   8  130.324 135.171 137.003 137.304 143.632 148.429 151.928 154.485 156.213 157.075 156.995 155.848 153.487 150.093 149.050
   9  130.339 135.530 138.146 140.270 144.618 148.705 151.996 154.504 156.254 157.211 157.365 156.744 155.474 153.980 153.249
  10  130.355 135.892 139.030 141.795 145.398 149.006 152.101 154.548 156.299 157.312 157.601 157.248 156.442 155.538 155.011
1
  HEAD IN LAYER   2 AT END OF TIME STEP  29 IN STRESS PERIOD    2
  ---------------------------------------------------------------------------

           1       2       3       4       5       6       7       8       9      10      11      12      13      14      15
 ...........................................................................................................................
   1  131.876 135.565 138.014 140.412 144.206 148.078 151.471 154.246 156.377 157.870 158.774 159.178 159.216 159.066 158.919
   2  131.768 135.104 136.753 137.541 142.993 147.627 151.277 154.116 156.236 157.672 158.478 158.738 158.588 158.232 157.935
   3  131.668 134.571 134.482 125.955 140.786 147.084 151.056 153.932 155.996 157.314 157.926 157.892 157.330 156.478 155.773
   4  131.757 135.073 136.702 137.466 142.886 147.475 151.053 153.779 155.718 156.865 157.208 156.735 155.478 153.638 151.906
   5  131.854 135.509 137.921 140.274 144.010 147.800 151.063 153.635 155.445 156.419 156.474 155.481 153.240 149.481 144.395
   6  131.847 135.489 137.891 140.230 143.949 147.718 150.950 153.476 155.217 156.080 155.938 154.540 151.313 144.315 143.717
   7  131.735 135.017 136.612 137.336 142.709 147.237 150.727 153.324 155.074 155.931 155.791 154.429 151.292 144.356 143.862
   8  131.634 134.483 134.340 125.744 140.509 146.715 150.555 153.239 155.033 155.963 156.001 155.098 153.229 150.678 149.757
   9  131.726 134.994 136.576 137.286 142.648 147.167 150.653 153.261 155.066 156.076 156.308 155.819 154.764 153.532 152.892
  10  131.829 135.444 137.821 140.135 143.828 147.572 150.784 153.309 155.108 156.164 156.509 156.239 155.547 154.762 154.293
1
  HEAD IN LAYER   3 AT END OF TIME STEP  29 IN STRESS PERIOD    2
  ---------------------------------------------------------------------------

           1       2       3       4       5       6       7       8       9      10      11      12      13      14      15
 ...........................................................................................................................
   1  133.376 135.133 136.818 138.764 142.647 146.657 150.165 153.014 155.184 156.702 157.630 158.064 158.139 158.028 157.910
   2  133.178 134.583 135.199 134.581 141.038 146.102 149.945 152.879 155.044 156.511 157.350 157.657 157.573 157.296 157.061
   3  132.994 133.897 131.846 114.500 137.688 145.385 149.695 152.691 154.809 156.168 156.834 156.889 156.469 155.815 155.296
   4  133.157 134.550 135.149 134.508 140.934 145.952 149.724 152.548 154.542 155.744 156.173 155.866 154.921 153.600 152.502
   5  133.336 135.071 136.725 138.629 142.454 146.381 149.762 152.414 154.280 155.324 155.510 154.801 153.190 150.851 148.747
   6  133.322 135.050 136.694 138.585 142.394 146.299 149.649 152.257 154.059 155.003 155.027 154.031 151.874 148.587 147.396
   7  133.117 134.489 135.058 134.380 140.759 145.715 149.399 152.099 153.914 154.851 154.873 153.901 151.818 148.668 147.686
   8  132.931 133.802 131.704 114.299 137.416 145.018 149.195 152.005 153.864 154.861 155.018 154.356 152.973 151.257 150.457
   9  133.100 134.464 135.022 134.332 140.699 145.644 149.322 152.031 153.891 154.952 155.261 154.904 154.061 153.089 152.538
  10  133.289 135.001 136.624 138.490 142.273 146.151 149.480 152.083 153.929 155.027 155.427 155.240 154.661 153.993 153.581
1
  HEAD IN LAYER   4 AT END OF TIME STEP  29 IN STRESS PERIOD    2
  ---------------------------------------------------------------------------

           1       2       3       4       5       6       7       8       9      10      11      12      13      14      15
 ...........................................................................................................................
   1  133.796 135.064 136.518 138.463 142.168 146.133 149.657 152.528 154.714 156.245 157.185 157.633 157.727 157.635 157.532
   2  133.587 134.554 135.170 135.480 140.823 145.615 149.439 152.393 154.576 156.057 156.913 157.244 157.192 156.953 156.748
   3  133.404 133.984 132.881 124.741 138.527 145.011 149.199 152.207 154.344 155.723 156.415 156.513 156.163 155.603 155.168
   4  133.563 134.519 135.120 135.407 140.719 145.465 149.219 152.065 154.082 155.309 155.782 155.556 154.758 153.670 152.813
   5  133.750 135.000 136.425 138.329 141.977 145.857 149.255 151.934 153.825 154.903 155.153 154.580 153.254 151.447 149.971
   6  133.734 134.978 136.394 138.285 141.917 145.776 149.143 151.778 153.607 154.591 154.696 153.887 152.166 149.784 148.725
   7  133.517 134.456 135.029 135.280 140.545 145.229 148.895 151.619 153.461 154.438 154.538 153.747 152.086 149.817 148.911
   8  133.332 133.884 132.739 124.542 138.256 144.645 148.700 151.525 153.408 154.438 154.652 154.105 152.942 151.553 150.838
   9  133.497 134.429 134.992 135.232 140.485 145.157 148.817 151.548 153.431 154.517 154.864 154.571 153.830 152.977 152.476
  10  133.696 134.926 136.322 138.190 141.795 145.627 148.972 151.601 153.467 154.585 155.013 154.866 154.343 153.732 153.349
1
  HEAD IN LAYER   5 AT END OF TIME STEP  29 IN STRESS PERIOD    2
  ---------------------------------------------------------------------------

           1       2       3       4       5       6       7       8       9      10      11      12      13      14      15
 ...........................................................................................................................
   1  134.088 135.016 136.309 138.254 141.835 145.768 149.302 152.190 154.387 155.927 156.875 157.334 157.441 157.363 157.267
   2  133.872 134.533 135.150 136.106 140.673 145.276 149.087 152.055 154.250 155.742 156.609 156.956 156.927 156.714 156.530
   3  133.689 134.044 133.602 131.870 139.110 144.750 148.854 151.870 154.021 155.412 156.123 156.251 155.949 155.455 155.078
   4  133.845 134.498 135.100 136.033 140.570 145.126 148.867 151.729 153.762 155.007 155.509 155.340 154.645 153.718 153.030
   5  134.038 134.950 136.216 138.120 141.644 145.493 148.903 151.600 153.509 154.610 154.904 154.426 153.298 151.861 150.822
   6  134.021 134.928 136.185 138.076 141.584 145.411 148.791 151.445 153.293 154.304 154.465 153.786 152.370 150.617 149.650
   7  133.795 134.432 135.008 135.907 140.396 144.890 148.544 151.285 153.146 154.150 154.305 153.639 152.273 150.616 149.764
   8  133.610 133.942 133.460 131.673 138.841 144.385 148.356 151.190 153.091 154.143 154.397 153.930 152.921 151.760 151.103
   9  133.773 134.405 134.972 135.859 140.336 144.819 148.466 151.212 153.111 154.214 154.587 154.339 153.668 152.900 152.432
  10  133.979 134.874 136.113 137.981 141.463 145.263 148.618 151.265 153.146 154.278 154.724 154.606 154.122 153.551 153.188
1
  VOLUME BUDGET FOR ENTIRE MODEL AT END OF TIME STEP   29, STRESS PERIOD   2
  ------------------------------------------------------------------------------

     CUMULATIVE VOLUME      L**3       RATES FOR THIS TIME STEP      L**3/T
     ------------------                 ------------------------

           IN:                                      IN:
           ---                                      ---
         STORAGE(SS) =       40871.9535           STORAGE(SS) =       9.4919E-04
         STORAGE(SY) =           0.0000           STORAGE(SY) =           0.0000
               WELLS =           0.0000                 WELLS =           0.0000
       RIVER LEAKAGE =           0.0000         RIVER LEAKAGE =           0.0000
            RECHARGE =    47966141.6238              RECHARGE =      145000.0000
       CONSTANT HEAD =           0.0000         CONSTANT HEAD =           0.0000

            TOTAL IN =    48007013.5774              TOTAL IN =      145000.0009

          OUT:                                     OUT:
          ----                                     ----
         STORAGE(SS) =       6.3075E-02           STORAGE(SS) =       7.3849E-05
         STORAGE(SY) =           0.0000           STORAGE(SY) =           0.0000
               WELLS =    23086068.3701                 WELLS =       70000.0000
       RIVER LEAKAGE =    11485792.4331         RIVER LEAKAGE =       34486.6033
            RECHARGE =           0.0000              RECHARGE =           0.0000
       CONSTANT HEAD =    13439322.6368         CONSTANT HEAD =       40526.3219

           TOTAL OUT =    48011183.5031             TOTAL OUT =      145012.9253

            IN - OUT =       -4169.9258              IN - OUT =         -12.9244

 PERCENT DISCREPANCY =          -0.01     PERCENT DISCREPANCY =          -0.01






         TIME SUMMARY AT END OF TIME STEP   29 IN STRESS PERIOD    2
                    SECONDS     MINUTES      HOURS       DAYS        YEARS
                    -----------------------------------------------------------
   TIME STEP LENGTH 2.76472E+06  46079.      767.98      31.999     8.76088E-02
 STRESS PERIOD TIME 2.84948E+07 4.74913E+05  7915.2      329.80     0.90295    
         TOTAL TIME 2.85812E+07 4.76353E+05  7939.2      330.80     0.90568    
1
  HEAD IN LAYER   1 AT END OF TIME STEP  30 IN STRESS PERIOD    2
  ---------------------------------------------------------------------------

           1       2       3       4       5       6       7       8       9      10      11      12      13      14      15
 ...........................................................................................................................
   1  130.361 136.002 139.222 142.076 145.780 149.513 152.789 155.490 157.583 159.050 159.929 160.303 160.304 160.114 159.939
   2  130.344 135.629 138.322 140.531 144.967 149.166 152.621 155.366 157.440 158.844 159.616 159.829 159.613 159.178 158.817
   3  130.328 135.251 137.145 137.525 143.916 148.800 152.431 155.184 157.194 158.470 159.028 158.906 158.200 157.148 156.255
   4  130.343 135.601 138.271 140.453 144.858 149.013 152.396 155.022 156.905 157.998 158.253 157.613 156.041 153.678 151.305
   5  130.358 135.950 139.129 141.936 145.581 149.233 152.378 154.868 156.621 157.525 157.449 156.168 153.290 148.097 140.000
   6  130.357 135.933 139.099 141.892 145.520 149.151 152.264 154.706 156.386 157.168 156.858 155.055 150.747 140.000 140.000
   7  130.340 135.551 138.182 140.321 144.679 148.774 152.068 154.561 156.246 157.022 156.718 154.962 150.761 140.000 140.000
   8  130.324 135.171 137.003 137.304 143.632 148.429 151.928 154.485 156.213 157.075 156.995 155.848 153.487 150.093 149.050
   9  130.339 135.530 138.146 140.270 144.618 148.705 151.996 154.504 156.253 157.211 157.365 156.744 155.474 153.980 153.249
  10  130.355 135.892 139.030 141.795 145.398 149.006 152.101 154.548 156.299 157.312 157.601 157.248 156.442 155.538 155.011
1
  HEAD IN LAYER   2 AT END OF TIME STEP  30 IN STRESS PERIOD    2
  ---------------------------------------------------------------------------

           1       2       3       4       5       6       7       8       9      10      11      12      13      14      15
 ...........................................................................................................................
   1  131.876 135.565 138.014 140.412 144.206 148.078 151.471 154.246 156.377 157.870 158.774 159.178 159.216 159.066 158.919
   2  131.768 135.104 136.753 137.541 142.993 147.627 151.277 154.116 156.236 157.672 158.478 158.738 158.588 158.232 157.935
   3  131.668 134.571 134.482 125.955 140.786 147.084 151.056 153.932 155.996 157.314 157.926 157.892 157.330 156.478 155.773
   4  131.757 135.073 136.702 137.466 142.886 147.475 151.053 153.779 155.718 156.865 157.208 156.735 155.478 153.638 151.906
   5  131.854 135.509 137.921 140.274 144.010 147.800 151.063 153.635 155.445 156.419 156.474 155.481 153.240 149.481 144.395
   6  131.847 135.489 137.891 140.230 143.949 147.718 150.950 153.476 155.217 156.080 155.938 154.540 151.313 144.315 143.716
   7  131.735 135.017 136.612 137.336 142.709 147.237 150.727 153.324 155.074 155.931 155.791 154.429 151.292 144.356 143.862
   8  131.634 134.483 134.340 125.744 140.509 146.715 150.555 153.239 155.033 155.963 156.001 155.098 153.229 150.678 149.757
   9  131.726 134.994 136.576 137.286 142.648 147.167 150.653 153.261 155.066 156.076 156.308 155.819 154.764 153.532 152.892
  10  131.829 135.444 137.821 140.135 143.828 147.572 150.784 153.309 155.108 156.163 156.509 156.239 155.547 154.762 154.293
1
  HEAD IN LAYER   3 AT END OF TIME STEP  30 IN STRESS PERIOD    2
  ---------------------------------------------------------------------------

           1       2       3       4       5       6       7       8       9      10      11      12      13      14      15
 ...........................................................................................................................
   1  133.376 135.133 136.818 138.764 142.647 146.657 150.165 153.014 155.184 156.702 157.630 158.064 158.139 158.028 157.910
   2  133.178 134.583 135.199 134.581 141.038 146.102 149.945 152.879 155.044 156.511 157.350 157.657 157.573 157.296 157.061
   3  132.994 133.897 131.846 114.500 137.688 145.385 149.695 152.691 154.809 156.168 156.834 156.889 156.469 155.815 155.296
   4  133.157 134.550 135.149 134.508 140.934 145.952 149.724 152.548 154.542 155.743 156.173 155.866 154.921 153.600 152.502
   5  133.336 135.071 136.725 138.629 142.454 146.381 149.762 152.414 154.280 155.324 155.510 154.801 153.190 150.851 148.747
   6  133.322 135.050 136.694 138.585 142.394 146.299 149.649 152.257 154.059 155.003 155.027 154.031 151.874 148.587 147.396
   7  133.117 134.489 135.058 134.380 140.759 145.715 149.399 152.099 153.914 154.851 154.873 153.901 151.818 148.668 147.686
   8  132.931 133.802 131.704 114.299 137.416 145.018 149.195 152.005 153.864 154.861 155.018 154.356 152.973 151.257 150.457
   9  133.100 134.464 135.022 134.332 140.699 145.644 149.322 152.031 153.891 154.952 155.261 154.904 154.061 153.089 152.538
  10  133.289 135.001 136.624 138.490 142.273 146.151 149.480 152.083 153.929 155.027 155.427 155.240 154.661 153.993 153.581
1
  HEAD IN LAYER   4 AT END OF TIME STEP  30 IN STRESS PERIOD    2
  ---------------------------------------------------------------------------

           1       2       3       4       5       6       7       8       9      10      11      12      13      14      15
 ...........................................................................................................................
   1  133.796 135.064 136.518 138.463 142.168 146.133 149.657 152.528 154.714 156.245 157.185 157.633 157.727 157.635 157.532
   2  133.587 134.554 135.170 135.480 140.823 145.615 149.439 152.393 154.576 156.057 156.913 157.244 157.192 156.953 156.748
   3  133.404 133.984 132.881 124.741 138.527 145.011 149.199 152.207 154.344 155.723 156.415 156.513 156.163 155.603 155.168
   4  133.563 134.519 135.120 135.407 140.719 145.465 149.219 152.065 154.082 155.309 155.782 155.556 154.758 153.670 152.813
   5  133.750 135.000 136.425 138.329 141.977 145.857 149.255 151.934 153.825 154.903 155.153 154.580 153.254 151.447 149.971
   6  133.734 134.978 136.394 138.285 141.917 145.776 149.143 151.778 153.607 154.591 154.696 153.887 152.166 149.784 148.725
   7  133.517 134.456 135.029 135.280 140.545 145.229 148.895 151.619 153.461 154.438 154.538 153.747 152.086 149.817 148.911
   8  133.332 133.884 132.739 124.542 138.256 144.645 148.700 151.525 153.408 154.438 154.652 154.105 152.942 151.553 150.838
   9  133.497 134.429 134.992 135.232 140.485 145.157 148.817 151.548 153.431 154.517 154.864 154.571 153.829 152.977 152.476
  10  133.696 134.926 136.322 138.190 141.795 145.627 148.972 151.601 153.467 154.585 155.013 154.866 154.343 153.732 153.349
1
  HEAD IN LAYER   5 AT END OF TIME STEP  30 IN STRESS PERIOD    2
  ---------------------------------------------------------------------------

           1       2       3       4       5       6       7       8       9      10      11      12      13      14      15
 ...........................................................................................................................
   1  134.088 135.016 136.309 138.254 141.835 145.768 149.302 152.190 154.387 155.927 156.875 157.334 157.441 157.363 157.267
   2  133.872 134.533 135.150 136.106 140.673 145.276 149.087 152.055 154.250 155.742 156.609 156.956 156.927 156.714 156.530
   3  133.689 134.044 133.602 131.870 139.110 144.750 148.854 151.870 154.021 155.412 156.123 156.251 155.949 155.455 155.078
   4  133.845 134.498 135.100 136.033 140.570 145.126 148.867 151.729 153.762 155.007 155.509 155.340 154.645 153.718 153.030
   5  134.038 134.950 136.216 138.120 141.644 145.493 148.903 151.600 153.509 154.610 154.904 154.426 153.298 151.861 150.822
   6  134.021 134.928 136.185 138.076 141.584 145.411 148.791 151.445 153.293 154.304 154.465 153.786 152.370 150.617 149.650
   7  133.795 134.432 135.008 135.907 140.396 144.890 148.544 151.285 153.146 154.150 154.305 153.639 152.273 150.616 149.764
   8  133.610 133.942 133.460 131.673 138.841 144.385 148.356 151.190 153.091 154.143 154.396 153.930 152.921 151.760 151.103
   9  133.773 134.405 134.972 135.859 140.336 144.819 148.466 151.212 153.111 154.214 154.587 154.339 153.668 152.900 152.432
  10  133.979 134.874 136.113 137.981 141.463 145.263 148.618 151.265 153.146 154.278 154.724 154.606 154.122 153.551 153.188
1
  VOLUME BUDGET FOR ENTIRE MODEL AT END OF TIME STEP   30, STRESS PERIOD   2
  ------------------------------------------------------------------------------

     CUMULATIVE VOLUME      L**3       RATES FOR THIS TIME STEP      L**3/T
     ------------------                 ------------------------

           IN:                                      IN:
           ---                                      ---
         STORAGE(SS) =       40871.9845           STORAGE(SS) =       8.8009E-04
         STORAGE(SY) =           0.0000           STORAGE(SY) =           0.0000
               WELLS =           0.0000                 WELLS =           0.0000
       RIVER LEAKAGE =           0.0000         RIVER LEAKAGE =           0.0000
            RECHARGE =    53070000.0000              RECHARGE =      145000.0000
       CONSTANT HEAD =           0.0000         CONSTANT HEAD =           0.0000

            TOTAL IN =    53110871.9845              TOTAL IN =      145000.0009

          OUT:                                     OUT:
          ----                                     ----
         STORAGE(SS) =       6.5217E-02           STORAGE(SS) =       6.0837E-05
         STORAGE(SY) =           0.0000           STORAGE(SY) =           0.0000
               WELLS =    25550000.0000                 WELLS =       70000.0000
       RIVER LEAKAGE =    12699686.2707         RIVER LEAKAGE =       34486.5773
            RECHARGE =           0.0000              RECHARGE =           0.0000
       CONSTANT HEAD =    14865809.1872         CONSTANT HEAD =       40526.3106

           TOTAL OUT =    53115495.5232             TOTAL OUT =      145012.8880

            IN - OUT =       -4623.5387              IN - OUT =         -12.8871

 PERCENT DISCREPANCY =          -0.01     PERCENT DISCREPANCY =          -0.01






         TIME SUMMARY AT END OF TIME STEP   30 IN STRESS PERIOD    2
                    SECONDS     MINUTES      HOURS       DAYS        YEARS
                    -----------------------------------------------------------
   TIME STEP LENGTH 3.04120E+06  50687.      844.78      35.199     9.63697E-02
 STRESS PERIOD TIME 3.15360E+07 5.25600E+05  8760.0      365.00     0.99932    
         TOTAL TIME 3.16224E+07 5.27040E+05  8784.0      366.00      1.0021    
 
